%nprocshared=12
# opt freq=noraman hf/6-311g geom=connectivity

M0001

0 1
 C                 -0.21719641    0.02847566   -0.73697166
 H                 -0.50812076    0.12839777   -1.81802194
 C                 -0.36533852   -1.43241614   -0.39132599
 C                 -0.40926240   -2.36090038   -1.43592781
 C                 -0.45579941   -1.89153180    0.92379303
 C                 -0.54234932   -3.71801851   -1.16796018
 H                 -0.33722080   -2.01961873   -2.47552578
 C                 -0.59242922   -3.24915117    1.19001941
 H                 -0.42582941   -1.16780158    1.75426745
 C                 -0.63538201   -4.16548206    0.14556952
 H                 -0.57470507   -4.43570362   -1.99423637
 H                 -0.66695712   -3.59496781    2.22615825
 H                 -0.74257438   -5.23438803    0.35567463
 C                  1.20662388    0.51957559   -0.62932357
 C                  2.10359164    0.02407905    0.31648202
 C                  1.63320472    1.51678757   -1.51232619
 C                  3.40373120    0.51464393    0.37878613
 H                  1.78621383   -0.76442892    1.01069711
 C                  2.93141542    2.00695515   -1.44673811
 H                  0.93917362    1.91881470   -2.25968168
 C                  3.82035604    1.50649630   -0.50083997
 H                  4.09957340    0.11550262    1.12386384
 H                  3.25465911    2.78870700   -2.14176363
 H                  4.84352973    1.89213929   -0.45060797
 C                 -1.14094504    0.92262149    0.05339785
 C                 -2.19338191    1.56285457   -0.60541544
 C                 -0.96116379    1.14453847    1.41964788
 C                 -3.04457770    2.41320103    0.09123979
 H                 -2.35097741    1.39661767   -1.67767291
 C                 -1.81021276    1.99782636    2.11396246
 H                 -0.14950490    0.61631089    1.94251586
 C                 -2.85292309    2.63525740    1.45048532
 H                 -3.86699847    2.90991738   -0.43360625
 H                 -1.65673273    2.16650050    3.18465430
 H                 -3.52149007    3.30818856    1.99673097

 1 2 1.0 3 1.0 14 1.0 25 1.0
 2
 3 4 1.5 5 1.5
 4 6 1.5 7 1.0
 5 8 1.5 9 1.0
 6 10 1.5 11 1.0
 7
 8 10 1.5 12 1.0
 9
 10 13 1.0
 11
 12
 13
 14 15 1.5 16 1.5
 15 17 1.5 18 1.0
 16 19 1.5 20 1.0
 17 21 1.5 22 1.0
 18
 19 21 1.5 23 1.0
 20
 21 24 1.0
 22
 23
 24
 25 26 1.5 27 1.5
 26 28 1.5 29 1.0
 27 30 1.5 31 1.0
 28 32 1.5 33 1.0
 29
 30 32 1.5 34 1.0
 31
 32 35 1.0
 33
 34
 35

