%nprocshared=12
# opt freq=noraman hf/6-311g geom=connectivity

M0001

0 1
 C                  0.00000000    0.00000000    0.77439698
 H                  0.00000000    0.00000000    1.89905088
 C                  1.01346392   -1.03080865    0.34067585
 C                  1.71218871   -1.74149158    1.31997851
 C                  1.27452579   -1.29919534   -1.00422374
 C                  2.65319461   -2.69860209    0.95780992
 H                  1.52106888   -1.54458414    2.38117755
 C                  2.21469193   -2.25617779   -1.36557766
 H                  0.72048334   -0.73681730   -1.77694677
 C                  2.90727271   -2.95702855   -0.38463471
 H                  3.19602267   -3.24970596    1.73302813
 H                  2.40945805   -2.45595813   -2.42414341
 H                  3.64846784   -3.71090869   -0.66829297
 C                 -1.39943845   -0.36228120    0.34067585
 C                 -2.36427028   -0.61205313    1.31997851
 C                 -1.76239906   -0.45417405   -1.00422374
 C                 -3.66365523   -0.94843285    0.95780992
 H                 -2.09818356   -0.54499224    2.38117755
 C                 -3.06125324   -0.78989060   -1.36557766
 H                 -0.99834416   -0.25554821   -1.77694677
 C                 -4.01449821   -1.03925771   -0.38463471
 H                 -4.41233928   -1.14298386    1.73302813
 H                 -3.33165117   -0.85867280   -2.42414341
 H                 -5.03797511   -1.30421147   -0.66829297
 C                  0.38597453    1.39308985    0.34067585
 C                  0.48787327    1.75336939   -1.00422374
 C                  0.65208158    2.35354471    1.31997851
 C                  0.84656131    3.04606839   -1.36557766
 H                  0.27786081    0.99236551   -1.77694677
 C                  1.01046068    3.64703494    0.95780992
 H                  0.57711468    2.08957638    2.38117755
 C                  1.10722550    3.99628626   -0.38463471
 H                  0.92219312    3.31463098   -2.42414341
 H                  1.21631655    4.39268981    1.73302813
 H                  1.38950727    5.01512016   -0.66829297

 1 2 1.0 3 1.0 14 1.0 25 1.0
 2
 3 4 1.5 5 1.5
 4 6 1.5 7 1.0
 5 8 1.5 9 1.0
 6 10 1.5 11 1.0
 7
 8 10 1.5 12 1.0
 9
 10 13 1.0
 11
 12
 13
 14 15 1.5 16 1.5
 15 17 1.5 18 1.0
 16 19 1.5 20 1.0
 17 21 1.5 22 1.0
 18
 19 21 1.5 23 1.0
 20
 21 24 1.0
 22
 23
 24
 25 26 1.5 27 1.5
 26 28 1.5 29 1.0
 27 30 1.5 31 1.0
 28 32 1.5 33 1.0
 29
 30 32 1.5 34 1.0
 31
 32 35 1.0
 33
 34
 35

