%nprocshared=12
# opt freq=noraman hf/6-311g geom=connectivity

M0001

0 1
 C                  0.65484859    0.35024633   -0.20075503
 H                  1.59689781    0.84976293   -0.55613407
 C                  0.82718522   -1.13182441   -0.42748224
 C                  2.06239398   -1.61175669   -0.86938964
 C                 -0.21918474   -2.03389165   -0.22773577
 C                  2.24240690   -2.96873041   -1.11228073
 H                  2.89586106   -0.91706767   -1.02736085
 C                 -0.03900867   -3.38945701   -0.47452896
 H                 -1.18244640   -1.65715962    0.14874559
 C                  1.19204721   -3.85929820   -0.91922237
 H                  3.21435739   -3.33552856   -1.45795333
 H                 -0.86821016   -4.08678488   -0.31725145
 H                  1.33426535   -4.92685953   -1.11500806
 C                  0.50601569    0.71276275    1.25590711
 C                 -0.32269472    0.00544238    2.12857172
 C                  1.22832115    1.80500920    1.74584539
 C                 -0.42460352    0.37865336    3.46381054
 H                 -0.89252924   -0.85995880    1.75338897
 C                  1.12322978    2.17847594    3.08026896
 H                  1.88283451    2.37395544    1.07494341
 C                  0.29720600    1.46580627    3.94276056
 H                 -1.07519667   -0.18738151    4.13825689
 H                  1.69352971    3.03569202    3.45247011
 H                  0.21659601    1.75941455    4.99419041
 C                 -0.46382598    0.88480331   -1.06247208
 C                 -0.17128055    1.24029971   -2.38306497
 C                 -1.77022871    1.02867697   -0.59641493
 C                 -1.16846570    1.72804630   -3.21825399
 H                  0.85028121    1.13044490   -2.76530329
 C                 -2.76666079    1.51975107   -1.43367484
 H                 -2.01379148    0.76178674    0.43986255
 C                 -2.46916692    1.86926714   -2.74520154
 H                 -0.92893192    2.00176752   -4.25092302
 H                 -3.78794388    1.63099461   -1.05504703
 H                 -3.25410760    2.25463926   -3.40356403

 1 2 1.0 3 1.0 14 1.0 25 1.0
 2
 3 4 1.5 5 1.5
 4 6 1.5 7 1.0
 5 8 1.5 9 1.0
 6 10 1.5 11 1.0
 7
 8 10 1.5 12 1.0
 9
 10 13 1.0
 11
 12
 13
 14 15 1.5 16 1.5
 15 17 1.5 18 1.0
 16 19 1.5 20 1.0
 17 21 1.5 22 1.0
 18
 19 21 1.5 23 1.0
 20
 21 24 1.0
 22
 23
 24
 25 26 1.5 27 1.5
 26 28 1.5 29 1.0
 27 30 1.5 31 1.0
 28 32 1.5 33 1.0
 29
 30 32 1.5 34 1.0
 31
 32 35 1.0
 33
 34
 35

