%nprocshared=12
# opt freq=noraman hf/6-311g geom=connectivity

M0001

0 1
 C                 -0.08888045   -0.76756350    0.05472275
 H                 -0.16916701   -1.88500376    0.13275993
 C                  0.19607642   -0.50354687   -1.40333134
 C                  1.42887112   -0.90712358   -1.92770826
 C                 -0.74470802    0.07310240   -2.25613985
 C                  1.71358791   -0.73083516   -3.27525246
 H                  2.17441667   -1.36063875   -1.26358034
 C                 -0.45803424    0.24693009   -3.60647662
 H                 -1.71741936    0.39266793   -1.86136923
 C                  0.76965280   -0.15314617   -4.11903670
 H                  2.68267364   -1.04813032   -3.67351290
 H                 -1.20550213    0.70019681   -4.26550619
 H                  0.99372830   -0.01571529   -5.18162964
 C                 -1.39038369   -0.18462026    0.54577098
 C                 -2.40679491   -1.04656157    0.96403310
 C                 -1.60394630    1.19477719    0.59980299
 C                 -3.61515021   -0.53580689    1.42524563
 H                 -2.25421099   -2.13185998    0.92993212
 C                 -2.81193820    1.70276401    1.06150988
 H                 -0.79620596    1.87432423    0.28427365
 C                 -3.82062894    0.83814389    1.47397020
 H                 -4.40591543   -1.21911876    1.75067000
 H                 -2.96774836    2.78605953    1.10060083
 H                 -4.77253224    1.23872853    1.83685250
 C                  1.05665049   -0.32205860    0.93152648
 C                  1.69245034   -1.25303394    1.75541243
 C                  1.49762855    1.00272389    0.93306263
 C                  2.75515828   -0.86363420    2.56318674
 H                  1.35428338   -2.29578739    1.76836056
 C                  2.56152624    1.38875891    1.73893116
 H                  0.97904141    1.73951219    0.30071529
 C                  3.19321242    0.45567347    2.55450755
 H                  3.24757591   -1.59958508    3.20703855
 H                  2.90097180    2.42952932    1.73157538
 H                  4.03166049    0.75987763    3.18908225

 1 2 1.0 3 1.0 14 1.0 25 1.0
 2
 3 4 1.5 5 1.5
 4 6 1.5 7 1.0
 5 8 1.5 9 1.0
 6 10 1.5 11 1.0
 7
 8 10 1.5 12 1.0
 9
 10 13 1.0
 11
 12
 13
 14 15 1.5 16 1.5
 15 17 1.5 18 1.0
 16 19 1.5 20 1.0
 17 21 1.5 22 1.0
 18
 19 21 1.5 23 1.0
 20
 21 24 1.0
 22
 23
 24
 25 26 1.5 27 1.5
 26 28 1.5 29 1.0
 27 30 1.5 31 1.0
 28 32 1.5 33 1.0
 29
 30 32 1.5 34 1.0
 31
 32 35 1.0
 33
 34
 35

