%nprocshared=12
# opt freq=noraman hf/6-311g geom=connectivity

M0001

0 1
 C                 -0.07449180   -0.02864892   -0.77485668
 H                 -0.18583763   -0.10080546   -1.88989077
 C                 -1.48527904    0.10663673   -0.25842308
 C                 -2.30607349   -1.02419754   -0.20636103
 C                 -2.01707868    1.34491102    0.10350892
 C                 -3.62783940   -0.91766574    0.20716739
 H                 -1.89778382   -2.00164427   -0.49074051
 C                 -3.34117080    1.44959487    0.51598094
 H                 -1.38598983    2.24171685    0.06496360
 C                 -4.14911926    0.32010704    0.56977065
 H                 -4.25967355   -1.81092080    0.24658887
 H                 -3.74605051    2.42693080    0.79800845
 H                 -5.19092872    0.40362651    0.89507321
 C                  0.58868519   -1.29540945   -0.28991113
 C                  1.04465214   -2.23119824   -1.22057976
 C                  0.75722237   -1.55084119    1.07258746
 C                  1.65447494   -3.40545187   -0.79253390
 H                  0.92392702   -2.04186666   -2.29351569
 C                  1.36454619   -2.72574756    1.49799586
 H                  0.41803839   -0.80033608    1.80266611
 C                  1.81276874   -3.65613292    0.56601878
 H                  2.01042962   -4.13365951   -1.52880694
 H                  1.49155741   -2.91711906    2.56826531
 H                  2.29103358   -4.58199271    0.90122516
 C                  0.80054760    1.16377068   -0.47755463
 C                  1.33791672    1.89800861   -1.53686826
 C                  1.09363358    1.54637128    0.83352518
 C                  2.15234316    2.99728576   -1.28658404
 H                  1.11923243    1.60886764   -2.57162929
 C                  1.90682656    2.64540364    1.08110859
 H                  0.68366589    0.95454315    1.66699999
 C                  2.43698839    3.37372018    0.02115862
 H                  2.57009848    3.56667895   -2.12325825
 H                  2.13095053    2.93594184    2.11259179
 H                  3.07777770    4.23952242    0.21630893

 1 2 1.0 3 1.0 14 1.0 25 1.0
 2
 3 4 1.5 5 1.5
 4 6 1.5 7 1.0
 5 8 1.5 9 1.0
 6 10 1.5 11 1.0
 7
 8 10 1.5 12 1.0
 9
 10 13 1.0
 11
 12
 13
 14 15 1.5 16 1.5
 15 17 1.5 18 1.0
 16 19 1.5 20 1.0
 17 21 1.5 22 1.0
 18
 19 21 1.5 23 1.0
 20
 21 24 1.0
 22
 23
 24
 25 26 1.5 27 1.5
 26 28 1.5 29 1.0
 27 30 1.5 31 1.0
 28 32 1.5 33 1.0
 29
 30 32 1.5 34 1.0
 31
 32 35 1.0
 33
 34
 35

