%nprocshared=12
# opt freq=noraman hf/6-311g geom=connectivity

M0001

0 1
 C                  0.16251197    0.74669011   -0.12600144
 H                  0.35470301    1.83273110   -0.33798286
 C                 -1.32386521    0.56838817    0.07092139
 C                 -2.14983967    1.69365227    0.11525528
 C                 -1.89187323   -0.70004371    0.20509857
 C                 -3.52221192    1.54935288    0.28651694
 H                 -1.71739819    2.69621291    0.01583849
 C                 -3.26365470   -0.84181136    0.37345536
 H                 -1.23565957   -1.58369611    0.19375973
 C                 -4.08156370    0.28282196    0.41310111
 H                 -4.16273404    2.43670184    0.32118630
 H                 -3.69960753   -1.84079069    0.47614750
 H                 -5.16241495    0.17091240    0.54531821
 C                  0.64467913    0.02198282   -1.35850426
 C                 -0.03902190    0.22678436   -2.56214855
 C                  1.77381399   -0.79612135   -1.35341362
 C                  0.39621258   -0.38049860   -3.73245663
 H                 -0.92811027    0.86868478   -2.57426888
 C                  2.20929850   -1.40234098   -2.52768101
 H                  2.32376161   -0.96418428   -0.41858799
 C                  1.52286253   -1.19744276   -3.71813392
 H                 -0.14844348   -0.21486417   -4.66767598
 H                  3.09760867   -2.04218539   -2.51026939
 H                  1.86635810   -1.67535162   -4.64100931
 C                  0.91170382    0.39297771    1.13433186
 C                  0.84944792   -0.88565401    1.69298497
 C                  1.68224606    1.37298667    1.76431891
 C                  1.54512851   -1.17922567    2.85918532
 H                  0.23005605   -1.65391751    1.20365959
 C                  2.37795094    1.07685628    2.93124661
 H                  1.74051784    2.38190194    1.33891935
 C                  2.31163800   -0.19865557    3.48022213
 H                  1.48735241   -2.18424191    3.28944389
 H                  2.97893802    1.85171672    3.41810746
 H                  2.85960882   -0.43032937    4.39911466

 1 2 1.0 3 1.0 14 1.0 25 1.0
 2
 3 4 1.5 5 1.5
 4 6 1.5 7 1.0
 5 8 1.5 9 1.0
 6 10 1.5 11 1.0
 7
 8 10 1.5 12 1.0
 9
 10 13 1.0
 11
 12
 13
 14 15 1.5 16 1.5
 15 17 1.5 18 1.0
 16 19 1.5 20 1.0
 17 21 1.5 22 1.0
 18
 19 21 1.5 23 1.0
 20
 21 24 1.0
 22
 23
 24
 25 26 1.5 27 1.5
 26 28 1.5 29 1.0
 27 30 1.5 31 1.0
 28 32 1.5 33 1.0
 29
 30 32 1.5 34 1.0
 31
 32 35 1.0
 33
 34
 35

