%nprocshared=12
# opt freq=noraman hf/6-311g geom=connectivity

M0001

0 1
 C                 -0.75716104   -0.10771847    0.10817923
 H                 -1.86683097   -0.25232002    0.20524796
 C                 -0.21163777    0.10828321    1.49733079
 C                 -1.07773879    0.00410763    2.58846755
 C                  1.13170228    0.41625643    1.72442509
 C                 -0.60692757    0.20435370    3.88145998
 H                 -2.13534138   -0.23679084    2.42771170
 C                  1.60006684    0.61679757    3.01729030
 H                  1.81330750    0.51027155    0.86406532
 C                  0.73180472    0.51051407    4.09866507
 H                 -1.29402883    0.12102760    4.72982795
 H                  2.65461259    0.86009941    3.18255791
 H                  1.10104608    0.66863943    5.11696879
 C                 -0.25814129   -1.36051111   -0.56920813
 C                 -0.75995907   -1.66769850   -1.83913791
 C                  0.64189317   -2.23869203    0.03208640
 C                 -0.36339290   -2.82649830   -2.49271986
 H                 -1.46738046   -0.98140006   -2.31965032
 C                  1.03672422   -3.40070377   -0.62404227
 H                  1.04173627   -2.01614505    1.02968145
 C                  0.53698923   -3.69718501   -1.88580906
 H                 -0.76072727   -3.05501863   -3.48695956
 H                  1.74393469   -4.08245150   -0.14044089
 H                  0.84866034   -4.61143925   -2.40069747
 C                 -0.52409916    1.10572443   -0.75941402
 C                  0.75531496    1.45009955   -1.19977119
 C                 -1.61097425    1.89652342   -1.13828873
 C                  0.94449471    2.56169415   -2.01177135
 H                  1.61322177    0.83988452   -0.87909766
 C                 -1.41893148    3.01030056   -1.94847916
 H                 -2.62101465    1.64110438   -0.79690453
 C                 -0.14278594    3.34302896   -2.38891089
 H                  1.95158945    2.82189309   -2.35328271
 H                 -2.27626282    3.62569062   -2.24014292
 H                  0.00623688    4.21827818   -3.02923685

 1 2 1.0 3 1.0 14 1.0 25 1.0
 2
 3 4 1.5 5 1.5
 4 6 1.5 7 1.0
 5 8 1.5 9 1.0
 6 10 1.5 11 1.0
 7
 8 10 1.5 12 1.0
 9
 10 13 1.0
 11
 12
 13
 14 15 1.5 16 1.5
 15 17 1.5 18 1.0
 16 19 1.5 20 1.0
 17 21 1.5 22 1.0
 18
 19 21 1.5 23 1.0
 20
 21 24 1.0
 22
 23
 24
 25 26 1.5 27 1.5
 26 28 1.5 29 1.0
 27 30 1.5 31 1.0
 28 32 1.5 33 1.0
 29
 30 32 1.5 34 1.0
 31
 32 35 1.0
 33
 34
 35

