%nprocshared=12
# opt freq=noraman hf/6-311g geom=connectivity

M0001

0 1
 C                 -0.11993580    0.75257043    0.09551914
 H                 -0.26624431    1.84932145    0.29310768
 C                 -0.34203218    0.55518753   -1.38346343
 C                 -0.61334188   -0.69312525   -1.94633975
 C                 -0.26762526    1.67247565   -2.22095157
 C                 -0.81157565   -0.82209511   -3.31630953
 H                 -0.67749812   -1.57966659   -1.29496727
 C                 -0.46238889    1.54129981   -3.59066068
 H                 -0.05271166    2.66090864   -1.79762422
 C                 -0.73597511    0.29391092   -4.14166453
 H                 -1.02861087   -1.80644370   -3.74380860
 H                 -0.40065692    2.42335885   -4.23644637
 H                 -0.89163562    0.19179045   -5.22029403
 C                  1.28800658    0.42295222    0.53030302
 C                  2.04295825   -0.58569454   -0.06755519
 C                  1.84773280    1.15834788    1.58023064
 C                  3.33449306   -0.85407276    0.37379504
 H                  1.62034677   -1.16599492   -0.89774042
 C                  3.13696988    0.88702394    2.02092950
 H                  1.26586120    1.95232432    2.06286648
 C                  3.88399664   -0.11994766    1.41810962
 H                  3.91847429   -1.64634123   -0.10579370
 H                  3.56523874    1.46795028    2.84425627
 H                  4.90044369   -0.33192188    1.76467468
 C                 -1.11909463    0.01303125    0.95116642
 C                 -2.06194058    0.74408629    1.67816616
 C                 -1.11461424   -1.37900950    1.05380326
 C                 -2.97736023    0.09200255    2.49659661
 H                 -2.08178732    1.83801473    1.60591738
 C                 -2.02741796   -2.02912852    1.87547302
 H                 -0.39083682   -1.95481605    0.45719390
 C                 -2.95978652   -1.29453313    2.59999166
 H                 -3.71251739    0.67340133    3.06212522
 H                 -2.01065224   -3.12103746    1.95108848
 H                 -3.67828174   -1.80613042    3.24830528

 1 2 1.0 3 1.0 14 1.0 25 1.0
 2
 3 4 1.5 5 1.5
 4 6 1.5 7 1.0
 5 8 1.5 9 1.0
 6 10 1.5 11 1.0
 7
 8 10 1.5 12 1.0
 9
 10 13 1.0
 11
 12
 13
 14 15 1.5 16 1.5
 15 17 1.5 18 1.0
 16 19 1.5 20 1.0
 17 21 1.5 22 1.0
 18
 19 21 1.5 23 1.0
 20
 21 24 1.0
 22
 23
 24
 25 26 1.5 27 1.5
 26 28 1.5 29 1.0
 27 30 1.5 31 1.0
 28 32 1.5 33 1.0
 29
 30 32 1.5 34 1.0
 31
 32 35 1.0
 33
 34
 35

