%nprocshared=12
# opt freq=noraman hf/6-311g geom=connectivity

M0001

0 1
 C                 -0.14211716    0.76779931    0.15230018
 H                 -0.34247780    1.85141238    0.36694981
 C                 -0.34483153    0.56774776   -1.32937046
 C                 -0.73050908   -0.66288272   -1.86282161
 C                 -0.13645280    1.64844370   -2.19053684
 C                 -0.90677220   -0.81028430   -3.23418148
 H                 -0.90396524   -1.51363765   -1.19067733
 C                 -0.31088174    1.49740360   -3.56104961
 H                  0.16888575    2.62040790   -1.78597269
 C                 -0.69685346    0.26833912   -4.08560429
 H                 -1.21291918   -1.77910804   -3.64196362
 H                 -0.14419921    2.34908819   -4.22852178
 H                 -0.83581843    0.15147111   -5.16509063
 C                  1.28258674    0.49302222    0.56611927
 C                  2.04282045   -0.51560110   -0.02766549
 C                  1.85379501    1.27178052    1.57627784
 C                  3.35281884   -0.74096922    0.38045341
 H                  1.60265219   -1.12520271   -0.82784579
 C                  3.16264011    1.04260592    1.98373982
 H                  1.26796558    2.06612727    2.05320609
 C                  3.91487324    0.03643713    1.38664029
 H                  3.94158695   -1.53257399   -0.09426298
 H                  3.60176388    1.65678068    2.77661700
 H                  4.94624351   -0.14163736    1.70726498
 C                 -1.12822293   -0.03202147    0.96739364
 C                 -0.85128331   -1.33104123    1.39556995
 C                 -2.35577212    0.54757796    1.29938653
 C                 -1.78519443   -2.03838410    2.14453393
 H                  0.11476193   -1.78902540    1.14540865
 C                 -3.28828128   -0.16274164    2.04602404
 H                 -2.58798092    1.56638482    0.96817629
 C                 -3.00495777   -1.45661335    2.47048589
 H                 -1.55641909   -3.05564793    2.47839916
 H                 -4.24788824    0.29876908    2.30055121
 H                 -3.73959624   -2.01422636    3.06006656

 1 2 1.0 3 1.0 14 1.0 25 1.0
 2
 3 4 1.5 5 1.5
 4 6 1.5 7 1.0
 5 8 1.5 9 1.0
 6 10 1.5 11 1.0
 7
 8 10 1.5 12 1.0
 9
 10 13 1.0
 11
 12
 13
 14 15 1.5 16 1.5
 15 17 1.5 18 1.0
 16 19 1.5 20 1.0
 17 21 1.5 22 1.0
 18
 19 21 1.5 23 1.0
 20
 21 24 1.0
 22
 23
 24
 25 26 1.5 27 1.5
 26 28 1.5 29 1.0
 27 30 1.5 31 1.0
 28 32 1.5 33 1.0
 29
 30 32 1.5 34 1.0
 31
 32 35 1.0
 33
 34
 35

