%nprocshared=12
# opt freq=noraman hf/6-311g geom=connectivity

M0001

0 1
 C                  0.05204172    0.75588123   -0.13286651
 H                  0.13761651    1.84679283   -0.38953256
 C                  1.43747655    0.16687557   -0.23852665
 C                  2.51962942    1.01683869   -0.47910618
 C                  1.66527688   -1.20544783   -0.12324353
 C                  3.80366405    0.49974653   -0.60800386
 H                  2.35857263    2.09774768   -0.56822503
 C                  2.94867035   -1.72140126   -0.25607564
 H                  0.81547929   -1.86980421    0.09577828
 C                  4.02038150   -0.86961147   -0.50067904
 H                  4.64558653    1.17394136   -0.79600720
 H                  3.11416567   -2.79993403   -0.16685964
 H                  5.03142824   -1.27552873   -0.60669267
 C                 -0.51424027    0.69201043    1.26379317
 C                 -0.42606018   -0.44950406    2.06234254
 C                 -1.15576222    1.82520536    1.77288391
 C                 -0.96353700   -0.45761799    3.34438418
 H                  0.08153743   -1.34644886    1.67218555
 C                 -1.69507395    1.81450994    3.05358085
 H                 -1.23665283    2.73047565    1.15957801
 C                 -1.59956249    0.67345478    3.84286608
 H                 -0.88361012   -1.35831979    3.96154731
 H                 -2.19544142    2.70777008    3.44130447
 H                 -2.02278840    0.66658283    4.85233852
 C                 -0.85822151    0.14228566   -1.16948087
 C                 -1.68424524   -0.94721156   -0.89521640
 C                 -0.86130323    0.68931332   -2.45654070
 C                 -2.49933849   -1.48070150   -1.88822444
 H                 -1.69948332   -1.38205190    0.11229475
 C                 -1.67434740    0.15344992   -3.44737086
 H                 -0.21576276    1.54432919   -2.68876236
 C                 -2.49583946   -0.93327044   -3.16537373
 H                 -3.14555461   -2.33443696   -1.65969427
 H                 -1.66785583    0.58841409   -4.45208356
 H                 -3.13684600   -1.35433466   -3.94631198

 1 2 1.0 3 1.0 14 1.0 25 1.0
 2
 3 4 1.5 5 1.5
 4 6 1.5 7 1.0
 5 8 1.5 9 1.0
 6 10 1.5 11 1.0
 7
 8 10 1.5 12 1.0
 9
 10 13 1.0
 11
 12
 13
 14 15 1.5 16 1.5
 15 17 1.5 18 1.0
 16 19 1.5 20 1.0
 17 21 1.5 22 1.0
 18
 19 21 1.5 23 1.0
 20
 21 24 1.0
 22
 23
 24
 25 26 1.5 27 1.5
 26 28 1.5 29 1.0
 27 30 1.5 31 1.0
 28 32 1.5 33 1.0
 29
 30 32 1.5 34 1.0
 31
 32 35 1.0
 33
 34
 35

