%nprocshared=12
# opt freq=noraman hf/6-311g geom=connectivity

M0001

0 1
 C                 -0.24139447   -0.07827299    0.72544787
 H                 -0.56557882   -0.25010727    1.78783370
 C                 -0.45529331    1.38914865    0.44886285
 C                 -0.58912028    2.25744723    1.53664670
 C                 -0.52098479    1.91193534   -0.84375349
 C                 -0.78582271    3.61804269    1.33293261
 H                 -0.53780967    1.86576568    2.55950875
 C                 -0.72134955    3.27278057   -1.04579696
 H                 -0.42043799    1.23578430   -1.70812182
 C                 -0.85365540    4.12900931    0.04133795
 H                 -0.88824163    4.28819366    2.19261524
 H                 -0.77533960    3.66863722   -2.06516629
 H                 -1.01100668    5.20044285   -0.11829017
 C                  1.20956139   -0.48908964    0.64881115
 C                  1.65535322   -1.51038046    1.49391511
 C                  2.11353007    0.10290841   -0.23254096
 C                  2.97932527   -1.92920345    1.45462581
 H                  0.95620683   -1.98796081    2.19022071
 C                  3.43937880   -0.31639137   -0.26845358
 H                  1.78068462    0.91105865   -0.89622724
 C                  3.87507911   -1.33260071    0.57323618
 H                  3.31755346   -2.73057879    2.11947135
 H                  4.14032539    0.15820997   -0.96266973
 H                  4.91855002   -1.66202773    0.54396230
 C                 -1.08664521   -0.97579814   -0.14489127
 C                 -0.84553349   -1.11589892   -1.51258887
 C                 -2.12686073   -1.70296298    0.43892522
 C                 -1.62197224   -1.97401466   -2.28192549
 H                 -0.04472532   -0.51977012   -1.97609395
 C                 -2.90556035   -2.55803097   -0.33269755
 H                 -2.33201884   -1.60171333    1.51130742
 C                 -2.65277158   -2.69818240   -1.69291184
 H                 -1.42063221   -2.07811896   -3.35295844
 H                 -3.71875830   -3.12329636    0.13371923
 H                 -3.26403496   -3.37496464   -2.29829257

 1 2 1.0 3 1.0 14 1.0 25 1.0
 2
 3 4 1.5 5 1.5
 4 6 1.5 7 1.0
 5 8 1.5 9 1.0
 6 10 1.5 11 1.0
 7
 8 10 1.5 12 1.0
 9
 10 13 1.0
 11
 12
 13
 14 15 1.5 16 1.5
 15 17 1.5 18 1.0
 16 19 1.5 20 1.0
 17 21 1.5 22 1.0
 18
 19 21 1.5 23 1.0
 20
 21 24 1.0
 22
 23
 24
 25 26 1.5 27 1.5
 26 28 1.5 29 1.0
 27 30 1.5 31 1.0
 28 32 1.5 33 1.0
 29
 30 32 1.5 34 1.0
 31
 32 35 1.0
 33
 34
 35

