%nprocshared=12
# opt freq=noraman hf/6-311g geom=connectivity

M0001

0 1
 C                 -0.71229861    0.15167300    0.26158311
 H                 -1.75567628    0.40000281    0.59488693
 C                 -0.75760407   -0.14973991   -1.21724859
 C                  0.41143214   -0.34827208   -1.95462290
 C                 -1.99278415   -0.22574818   -1.86421493
 C                  0.34717488   -0.61157808   -3.31744123
 H                  1.38246646   -0.31116718   -1.43774231
 C                 -2.05467434   -0.49193148   -3.22762646
 H                 -2.91929160   -0.07612532   -1.29752076
 C                 -0.88626823   -0.68257758   -3.95667517
 H                  1.26958211   -0.76416529   -3.88699607
 H                 -3.02720005   -0.55078774   -3.72708569
 H                 -0.93680915   -0.88953722   -5.03039655
 C                  0.08982048    1.39849535    0.54229629
 C                 -0.21792006    2.56162249   -0.17214416
 C                  1.08388656    1.44842713    1.51846253
 C                  0.46037426    3.74588726    0.08253583
 H                 -0.99819514    2.53027313   -0.94198890
 C                  1.76125778    2.63680583    1.77334096
 H                  1.33506843    0.54632063    2.09072814
 C                  1.45275999    3.78649748    1.05721322
 H                  0.21263675    4.64883960   -0.48473975
 H                  2.53949537    2.66280298    2.54295392
 H                  1.98678794    4.72048374    1.25854977
 C                 -0.26737882   -1.06129000    1.03951669
 C                  0.97737498   -1.65784924    0.82525504
 C                 -1.12714341   -1.60813489    1.99489742
 C                  1.35558934   -2.77967707    1.55272675
 H                  1.64953264   -1.23478928    0.06198216
 C                 -0.74645314   -2.73055365    2.72216974
 H                 -2.10807499   -1.15232310    2.17444747
 C                  0.49461118   -3.31780234    2.50343173
 H                  2.33267306   -3.24025231    1.37463400
 H                 -1.42747383   -3.15217039    3.46851890
 H                  0.79272154   -4.20165894    3.07631283

 1 2 1.0 3 1.0 14 1.0 25 1.0
 2
 3 4 1.5 5 1.5
 4 6 1.5 7 1.0
 5 8 1.5 9 1.0
 6 10 1.5 11 1.0
 7
 8 10 1.5 12 1.0
 9
 10 13 1.0
 11
 12
 13
 14 15 1.5 16 1.5
 15 17 1.5 18 1.0
 16 19 1.5 20 1.0
 17 21 1.5 22 1.0
 18
 19 21 1.5 23 1.0
 20
 21 24 1.0
 22
 23
 24
 25 26 1.5 27 1.5
 26 28 1.5 29 1.0
 27 30 1.5 31 1.0
 28 32 1.5 33 1.0
 29
 30 32 1.5 34 1.0
 31
 32 35 1.0
 33
 34
 35

