%nprocshared=12
# opt freq=noraman hf/6-311g geom=connectivity

M0001

0 1
 C                  0.00000000    0.00000000   -0.77391141
 H                  0.00000000    0.00000000   -1.89859415
 C                  1.10022358   -0.93737050   -0.34029224
 C                  1.86035114   -1.58176626   -1.31974568
 C                  1.38504012   -1.18002902    1.00429867
 C                  2.88252685   -2.45182160   -0.95790316
 H                  1.65120209   -1.40268627   -2.38109833
 C                  2.40623833   -2.05007129    1.36537414
 H                  0.78291732   -0.66990056    1.77727984
 C                  3.15803113   -2.68764648    0.38442203
 H                  3.47150235   -2.95219600   -1.73334680
 H                  2.61878777   -2.23115956    2.42388850
 H                  3.96328221   -3.37275787    0.66795822
 C                  0.26167487    1.42150683   -0.34029224
 C                  0.43967422    2.40199443   -1.31974568
 C                  0.32941506    1.78949441    1.00429867
 C                  0.68207635    3.72225224   -0.95790316
 H                  0.38916092    2.13132609   -2.38109833
 C                  0.57229466    3.10889914    1.36537414
 H                  0.18869222    1.01297654    1.77727984
 C                  0.74855456    4.07875843    0.38442203
 H                  0.82092553    4.48250723   -1.73334680
 H                  0.62284702    3.38351652    2.42388850
 H                  0.93925289    5.11868200    0.66795822
 C                 -1.36189845   -0.48413633   -0.34029224
 C                 -2.30002531   -0.82022823   -1.31974568
 C                 -1.71445518   -0.60946540    1.00429867
 C                 -3.56460320   -1.27043069   -0.95790316
 H                 -2.04036301   -0.72863982   -2.38109833
 C                 -2.97853299   -1.05882785    1.36537414
 H                 -0.97160954   -0.34307598    1.77727984
 C                 -3.90658569   -1.39111195    0.38442203
 H                 -4.29242787   -1.53031123   -1.73334680
 H                 -3.24163473   -1.15235691    2.42388850
 H                 -4.90253511   -1.74592413    0.66795822

 1 2 1.0 3 1.0 14 1.0 25 1.0
 2
 3 4 1.5 5 1.5
 4 6 1.5 7 1.0
 5 8 1.5 9 1.0
 6 10 1.5 11 1.0
 7
 8 10 1.5 12 1.0
 9
 10 13 1.0
 11
 12
 13
 14 15 1.5 16 1.5
 15 17 1.5 18 1.0
 16 19 1.5 20 1.0
 17 21 1.5 22 1.0
 18
 19 21 1.5 23 1.0
 20
 21 24 1.0
 22
 23
 24
 25 26 1.5 27 1.5
 26 28 1.5 29 1.0
 27 30 1.5 31 1.0
 28 32 1.5 33 1.0
 29
 30 32 1.5 34 1.0
 31
 32 35 1.0
 33
 34
 35

