%nprocshared=12
# opt freq=noraman hf/6-311g geom=connectivity

M0001

0 1
 C                  0.21285705    0.07228820    0.73469773
 H                  0.52747055    0.24156666    1.80038451
 C                  0.37306763   -1.40499851    0.47492018
 C                 -0.24990501   -2.05589923   -0.59113306
 C                  1.18326642   -2.14746790    1.33948944
 C                 -0.07096717   -3.42058586   -0.78725287
 H                 -0.89440126   -1.48120464   -1.27570463
 C                  1.36330215   -3.51108607    1.14049630
 H                  1.68281281   -1.65341918    2.18132672
 C                  0.73597580   -4.15129852    0.07720453
 H                 -0.56875902   -3.91898198   -1.62534755
 H                  2.00029968   -4.08184469    1.82396915
 H                  0.87643331   -5.22575975   -0.07767010
 C                 -1.21562270    0.54447052    0.61593136
 C                 -1.89377181    0.95065386    1.76783810
 C                 -1.87158557    0.60666743   -0.61459799
 C                 -3.20150764    1.41557772    1.68604804
 H                 -1.39444021    0.90467470    2.74291349
 C                 -3.17737351    1.07520287   -0.69552163
 H                 -1.34568801    0.25870031   -1.51675238
 C                 -3.84444588    1.48236915    0.45484801
 H                 -3.72500365    1.73101451    2.59444561
 H                 -3.67991976    1.12237664   -1.66698390
 H                 -4.87266099    1.85257859    0.39157058
 C                  1.11965841    0.92489086   -0.12008857
 C                  1.47730010    0.57266731   -1.42100649
 C                  1.61038845    2.11846507    0.41908573
 C                  2.31093430    1.39681865   -2.16981505
 H                  1.10722666   -0.36488750   -1.85531041
 C                  2.44095923    2.94118456   -0.33134957
 H                  1.33593008    2.41119793    1.43925803
 C                  2.79377721    2.58196285   -1.62811319
 H                  2.58681091    1.10789951   -3.18914342
 H                  2.81814043    3.87425783    0.09976055
 H                  3.44944137    3.22994817   -2.21839739

 1 2 1.0 3 1.0 14 1.0 25 1.0
 2
 3 4 1.5 5 1.5
 4 6 1.5 7 1.0
 5 8 1.5 9 1.0
 6 10 1.5 11 1.0
 7
 8 10 1.5 12 1.0
 9
 10 13 1.0
 11
 12
 13
 14 15 1.5 16 1.5
 15 17 1.5 18 1.0
 16 19 1.5 20 1.0
 17 21 1.5 22 1.0
 18
 19 21 1.5 23 1.0
 20
 21 24 1.0
 22
 23
 24
 25 26 1.5 27 1.5
 26 28 1.5 29 1.0
 27 30 1.5 31 1.0
 28 32 1.5 33 1.0
 29
 30 32 1.5 34 1.0
 31
 32 35 1.0
 33
 34
 35

