%nprocshared=12
# opt freq=noraman hf/6-311g geom=connectivity

M0001

0 1
 C                  0.27834342    0.08044997    0.72012710
 H                  0.72300302    0.21467848    1.74262783
 C                 -1.22206770    0.08500105    0.87399957
 C                 -2.07370604   -0.04354525   -0.22562726
 C                 -1.77487277    0.23010855    2.14840174
 C                 -3.45240513   -0.02862616   -0.05420236
 H                 -1.63683445   -0.14242779   -1.23197713
 C                 -3.15511515    0.24488926    2.31758838
 H                 -1.12018579    0.33337521    3.02189235
 C                 -3.99592943    0.11478135    1.21813533
 H                 -4.11039407   -0.12826653   -0.92349929
 H                 -3.57923071    0.35984572    3.32038874
 H                 -5.08219719    0.12662614    1.35285783
 C                  0.72576348    1.24004539   -0.13726249
 C                  1.43195676    2.29360544    0.44728209
 C                  0.45115641    1.27951900   -1.50586313
 C                  1.85935946    3.36616490   -0.32801560
 H                  1.65103344    2.27876397    1.52139290
 C                  0.88157538    2.35086659   -2.27878810
 H                 -0.12589719    0.45908354   -1.95924839
 C                  1.58777702    3.39566463   -1.69136246
 H                  2.41132695    4.18879692    0.13807150
 H                  0.66279027    2.37163728   -3.35126168
 H                  1.92718485    4.23947088   -2.30058550
 C                  0.84572171   -1.22594287    0.22243563
 C                  0.06930571   -2.37707452    0.09433029
 C                  2.21335793   -1.29545443   -0.06392467
 C                  0.64700872   -3.57388348   -0.31749926
 H                 -1.00434217   -2.34057415    0.31879289
 C                  2.78759383   -2.49047064   -0.47632493
 H                  2.83112437   -0.39471135    0.03467275
 C                  2.00503624   -3.63396309   -0.60426512
 H                  0.02623761   -4.47053560   -0.41424826
 H                  3.85845707   -2.53175975   -0.70035603
 H                  2.45806431   -4.57613895   -0.92868543

 1 2 1.0 3 1.0 14 1.0 25 1.0
 2
 3 4 1.5 5 1.5
 4 6 1.5 7 1.0
 5 8 1.5 9 1.0
 6 10 1.5 11 1.0
 7
 8 10 1.5 12 1.0
 9
 10 13 1.0
 11
 12
 13
 14 15 1.5 16 1.5
 15 17 1.5 18 1.0
 16 19 1.5 20 1.0
 17 21 1.5 22 1.0
 18
 19 21 1.5 23 1.0
 20
 21 24 1.0
 22
 23
 24
 25 26 1.5 27 1.5
 26 28 1.5 29 1.0
 27 30 1.5 31 1.0
 28 32 1.5 33 1.0
 29
 30 32 1.5 34 1.0
 31
 32 35 1.0
 33
 34
 35

