%nprocshared=12
# opt freq=noraman hf/6-311g geom=connectivity

M0001

0 1
 C                  0.00000000    0.00000000   -0.79560492
 H                  0.00000000    0.00000000   -1.91830621
 C                  1.39142183   -0.38245751   -0.35528743
 C                  2.17060157   -1.17949793   -1.19840808
 C                  1.91992232    0.03384459    0.86739660
 C                  3.45526105   -1.55282370   -0.82172241
 H                  1.76807633   -1.51550866   -2.16106760
 C                  3.20641105   -0.33929305    1.24051874
 H                  1.31622628    0.66767992    1.53029435
 C                  3.97591637   -1.13341734    0.39791996
 H                  4.05819598   -2.17825051   -1.48805235
 H                  3.61270911   -0.00446075    2.20045373
 H                  4.98848683   -1.42682390    0.69259152
 C                 -0.36449300    1.39623539   -0.35528743
 C                 -0.98927141    1.64577919    0.86739660
 C                 -0.06382566    2.46954507   -1.19840808
 C                 -1.30936914    2.94647998    1.24051874
 H                 -1.23634088    0.80604543    1.53029435
 C                 -0.38284577    3.76875570   -0.82172241
 H                  0.42843084    2.28895333   -2.16106760
 C                 -1.00638998    4.00995321    0.39791996
 H                 -1.80249143    3.13092826    2.20045373
 H                 -0.14267772    4.60362606   -1.48805235
 H                 -1.25857765    5.03356823    0.69259152
 C                 -1.02692883   -1.01377788   -0.35528743
 C                 -2.10677597   -1.29004719   -1.19840808
 C                 -0.93065090   -1.67962378    0.86739660
 C                 -3.07241533   -2.21593201   -0.82172241
 H                 -2.19650713   -0.77344467   -2.16106760
 C                 -1.89704191   -2.60718693    1.24051874
 H                 -0.07988534   -1.47372535    1.53029435
 C                 -2.96952639   -2.87653593    0.39791996
 H                 -3.91551825   -2.42537555   -1.48805235
 H                 -1.81021768   -3.12646751    2.20045373
 H                 -3.72990912   -3.60674433    0.69259152

 1 2 1.0 3 1.0 14 1.0 25 1.0
 2
 3 4 1.5 5 1.5
 4 6 1.5 7 1.0
 5 8 1.5 9 1.0
 6 10 1.5 11 1.0
 7
 8 10 1.5 12 1.0
 9
 10 13 1.0
 11
 12
 13
 14 15 1.5 16 1.5
 15 17 1.5 18 1.0
 16 19 1.5 20 1.0
 17 21 1.5 22 1.0
 18
 19 21 1.5 23 1.0
 20
 21 24 1.0
 22
 23
 24
 25 26 1.5 27 1.5
 26 28 1.5 29 1.0
 27 30 1.5 31 1.0
 28 32 1.5 33 1.0
 29
 30 32 1.5 34 1.0
 31
 32 35 1.0
 33
 34
 35

