%nprocshared=12
# opt freq=noraman hf/6-311g geom=connectivity

M0001

0 1
 C                  0.07019859    0.10272876    0.76486327
 H                  0.22502305    0.23836831    1.86894895
 C                 -1.39863113   -0.15825141    0.54397267
 C                 -1.91736957   -0.41681207   -0.72692650
 C                 -2.26254194   -0.14961973    1.64151465
 C                 -3.27441811   -0.66176118   -0.89737391
 H                 -1.23337125   -0.43729970   -1.59019594
 C                 -3.62038086   -0.39483587    1.46863895
 H                 -1.87092553    0.05101200    2.64585841
 C                 -4.12885368   -0.65054855    0.20018405
 H                 -3.66960440   -0.86536795   -1.89785848
 H                 -4.28950538   -0.38669575    2.33521184
 H                 -5.19788046   -0.84391690    0.06570868
 C                  0.57427410    1.38217351    0.14389208
 C                 -0.27078592    2.29680484   -0.48290604
 C                  1.93699506    1.68152426    0.25168443
 C                  0.23639046    3.48620120   -0.99700597
 H                 -1.34279060    2.07954578   -0.57234790
 C                  2.44130569    2.86808296   -0.26350185
 H                  2.60817072    0.96694289    0.74302095
 C                  1.59119085    3.77448156   -0.88987129
 H                 -0.43795894    4.19630229   -1.48663828
 H                  3.50971974    3.09006779   -0.17554233
 H                  1.98873430    4.71022781   -1.29537812
 C                  0.89404173   -1.08302379    0.32329862
 C                  1.02967140   -1.41088249   -1.02708266
 C                  1.53885093   -1.86602281    1.28295426
 C                  1.80335129   -2.49880826   -1.41242636
 H                  0.50040932   -0.80662753   -1.77955985
 C                  2.31008640   -2.95622780    0.89505283
 H                  1.43794519   -1.62325915    2.34727555
 C                  2.44618629   -3.27269601   -0.45184276
 H                  1.90514213   -2.74641421   -2.47393989
 H                  2.81136352   -3.56584047    1.65381744
 H                  3.05596702   -4.12955219   -0.75549948

 1 2 1.0 3 1.0 14 1.0 25 1.0
 2
 3 4 1.5 5 1.5
 4 6 1.5 7 1.0
 5 8 1.5 9 1.0
 6 10 1.5 11 1.0
 7
 8 10 1.5 12 1.0
 9
 10 13 1.0
 11
 12
 13
 14 15 1.5 16 1.5
 15 17 1.5 18 1.0
 16 19 1.5 20 1.0
 17 21 1.5 22 1.0
 18
 19 21 1.5 23 1.0
 20
 21 24 1.0
 22
 23
 24
 25 26 1.5 27 1.5
 26 28 1.5 29 1.0
 27 30 1.5 31 1.0
 28 32 1.5 33 1.0
 29
 30 32 1.5 34 1.0
 31
 32 35 1.0
 33
 34
 35

