%nprocshared=12
# opt freq=noraman hf/6-311g geom=connectivity

M0001

0 1
 C                 -0.08751279    0.77030935   -0.04273011
 H                 -0.17900463    1.88567471   -0.13665034
 C                  1.37706795    0.41455867   -0.13256493
 C                  2.33084507    1.43401102   -0.15956721
 C                  1.79861060   -0.91531334   -0.19254321
 C                  3.68386260    1.12555207   -0.24967657
 H                  2.01527757    2.48268311   -0.10883176
 C                  3.15083321   -1.22089050   -0.28523500
 H                  1.04568568   -1.71710148   -0.14741968
 C                  4.09595579   -0.20070111   -0.31524412
 H                  4.42556638    1.93066758   -0.26923358
 H                  3.47106757   -2.26667883   -0.33325731
 H                  5.16128151   -0.44157016   -0.38840716
 C                 -0.64348477    0.38112039    1.30420257
 C                 -0.66045718   -0.94743619    1.73534995
 C                 -1.14671292    1.37545148    2.14605642
 C                 -1.17228848   -1.27592641    2.98457238
 H                 -0.24921386   -1.72867787    1.07673986
 C                 -1.65842584    1.04443983    3.39603140
 H                 -1.13957744    2.42317708    1.82300324
 C                 -1.67317220   -0.28044971    3.81717357
 H                 -1.17906216   -2.32031285    3.31287141
 H                 -2.04996874    1.83089857    4.04945010
 H                 -2.07618455   -0.53945414    4.80145003
 C                 -0.86379158    0.22110666   -1.21407718
 C                 -2.09373371   -0.41793265   -1.06021313
 C                 -0.35713167    0.41473664   -2.50366351
 C                 -2.80193337   -0.85966627   -2.17331144
 H                 -2.50659489   -0.57488176   -0.05563135
 C                 -1.06491952   -0.02813588   -3.61319998
 H                  0.60958769    0.91608795   -2.63322155
 C                 -2.29050604   -0.66686594   -3.45067911
 H                 -3.76631800   -1.36037331   -2.03873171
 H                 -0.65688740    0.12675298   -4.61725121
 H                 -2.84875963   -1.01485978   -4.32555966

 1 2 1.0 3 1.0 14 1.0 25 1.0
 2
 3 4 1.5 5 1.5
 4 6 1.5 7 1.0
 5 8 1.5 9 1.0
 6 10 1.5 11 1.0
 7
 8 10 1.5 12 1.0
 9
 10 13 1.0
 11
 12
 13
 14 15 1.5 16 1.5
 15 17 1.5 18 1.0
 16 19 1.5 20 1.0
 17 21 1.5 22 1.0
 18
 19 21 1.5 23 1.0
 20
 21 24 1.0
 22
 23
 24
 25 26 1.5 27 1.5
 26 28 1.5 29 1.0
 27 30 1.5 31 1.0
 28 32 1.5 33 1.0
 29
 30 32 1.5 34 1.0
 31
 32 35 1.0
 33
 34
 35

