%nprocshared=12
# opt freq=noraman hf/6-311g geom=connectivity

M0001

0 1
 C                  0.15550990   -0.07387981   -0.74896589
 H                  0.44353467   -0.20004900   -1.82804080
 C                 -1.35060295    0.00459088   -0.71889872
 C                 -2.05806414    0.52253967    0.36718869
 C                 -2.06239403   -0.46609551   -1.82659741
 C                 -3.44718236    0.57417801    0.34546829
 H                 -1.50688418    0.89962175    1.24373947
 C                 -3.45115395   -0.41686483   -1.84537140
 H                 -1.52435010   -0.87900585   -2.68823445
 C                 -4.14700869    0.10437947   -0.75989943
 H                 -3.98903304    0.98730520    1.20245719
 H                 -3.99750008   -0.78907202   -2.71814476
 H                 -5.24068974    0.14506341   -0.77636287
 C                  0.69951073   -1.27714061   -0.01681096
 C                  1.87018807   -1.87289296   -0.49749853
 C                  0.08651842   -1.80771372    1.11779460
 C                  2.41449540   -2.97644015    0.14714456
 H                  2.36562493   -1.46551697   -1.38664241
 C                  0.63199226   -2.91418409    1.76033558
 H                 -0.83711422   -1.35638580    1.50206994
 C                  1.79627222   -3.50016502    1.27802677
 H                  3.33202551   -3.43429647   -0.23663796
 H                  0.13995087   -3.32351951    2.64864590
 H                  2.22489971   -4.37057909    1.78484644
 C                  0.82642643    1.18528613   -0.25725820
 C                  1.52041027    1.98456550   -1.16882692
 C                  0.79165954    1.56255580    1.08616583
 C                  2.17124495    3.13596275   -0.74042206
 H                  1.55469334    1.70447643   -2.22829216
 C                  1.44606484    2.71136537    1.51397997
 H                  0.22012869    0.94722929    1.79756855
 C                  2.13858857    3.49978142    0.60132395
 H                  2.71220967    3.75634226   -1.46266766
 H                  1.41497837    2.99416557    2.57109392
 H                  2.65505022    4.40439225    0.93772299

 1 2 1.0 3 1.0 14 1.0 25 1.0
 2
 3 4 1.5 5 1.5
 4 6 1.5 7 1.0
 5 8 1.5 9 1.0
 6 10 1.5 11 1.0
 7
 8 10 1.5 12 1.0
 9
 10 13 1.0
 11
 12
 13
 14 15 1.5 16 1.5
 15 17 1.5 18 1.0
 16 19 1.5 20 1.0
 17 21 1.5 22 1.0
 18
 19 21 1.5 23 1.0
 20
 21 24 1.0
 22
 23
 24
 25 26 1.5 27 1.5
 26 28 1.5 29 1.0
 27 30 1.5 31 1.0
 28 32 1.5 33 1.0
 29
 30 32 1.5 34 1.0
 31
 32 35 1.0
 33
 34
 35

