%nprocshared=12
# opt freq=noraman hf/6-311g geom=connectivity

M0001

0 1
 C                  0.34038612   -0.05330365   -0.69517841
 H                  0.79693670   -0.16006585   -1.71566736
 C                 -1.15994685   -0.01028038   -0.85947974
 C                 -1.70864100    0.04113014   -2.14254708
 C                 -2.01224284   -0.02449816    0.24653553
 C                 -3.08830065    0.07295634   -2.31390304
 H                 -1.05183996    0.05752273   -3.02021506
 C                 -3.39039921    0.00476138    0.07267937
 H                 -1.57630112   -0.04121063    1.25716258
 C                 -3.93097134    0.05210486   -1.20817246
 H                 -3.51057531    0.11419518   -3.32323725
 H                 -4.05021185   -0.00832142    0.94620247
 H                 -5.01680035    0.07469612   -1.34506559
 C                  0.77970712   -1.28727589    0.05364428
 C                  1.72147799   -1.24132769    1.08103900
 C                  0.26549680   -2.52758994   -0.33960865
 C                  2.13773776   -2.41176781    1.70761440
 H                  2.13736797   -0.27680505    1.39902765
 C                  0.68104641   -3.69435603    0.28817310
 H                 -0.47530214   -2.57235384   -1.14700275
 C                  1.61921793   -3.63932017    1.31446274
 H                  2.87784511   -2.36198233    2.51289607
 H                  0.26941292   -4.65880834   -0.02647304
 H                  1.94715336   -4.55923121    1.80872270
 C                  0.84470733    1.24032374   -0.10597272
 C                  0.44527699    1.67606225    1.15957944
 C                  1.72765555    2.02757115   -0.84857266
 C                  0.92085742    2.87592796    1.67373350
 H                 -0.26310518    1.06194946    1.73780385
 C                  2.20238322    3.22815812   -0.33197024
 H                  2.04964806    1.70011743   -1.84422838
 C                  1.80123659    3.65402997    0.92917953
 H                  0.59965694    3.20866519    2.66602805
 H                  2.89374202    3.83887540   -0.92167108
 H                  2.17568739    4.59945095    1.33448109

 1 2 1.0 3 1.0 14 1.0 25 1.0
 2
 3 4 1.5 5 1.5
 4 6 1.5 7 1.0
 5 8 1.5 9 1.0
 6 10 1.5 11 1.0
 7
 8 10 1.5 12 1.0
 9
 10 13 1.0
 11
 12
 13
 14 15 1.5 16 1.5
 15 17 1.5 18 1.0
 16 19 1.5 20 1.0
 17 21 1.5 22 1.0
 18
 19 21 1.5 23 1.0
 20
 21 24 1.0
 22
 23
 24
 25 26 1.5 27 1.5
 26 28 1.5 29 1.0
 27 30 1.5 31 1.0
 28 32 1.5 33 1.0
 29
 30 32 1.5 34 1.0
 31
 32 35 1.0
 33
 34
 35

