%nprocshared=12
# opt freq=noraman hf/6-311g geom=connectivity

M0001

0 1
 C                  0.15597076    0.20862850    0.72246548
 H                  0.43873625    0.47920625    1.77611766
 C                  0.39061631   -1.27655899    0.58397376
 C                 -0.35649025   -2.07919155   -0.27757199
 C                  1.40552393   -1.86198334    1.34793569
 C                 -0.09519465   -3.44197595   -0.37446889
 H                 -1.16231581   -1.63649990   -0.87680442
 C                  1.66610737   -3.22286212    1.24808603
 H                  2.00359530   -1.24428632    2.02816891
 C                  0.91594015   -4.01656687    0.38628717
 H                 -0.69032019   -4.06205442   -1.05277665
 H                  2.46384430   -3.67066688    1.84959064
 H                  1.12103433   -5.08895721    0.30874132
 C                 -1.29294057    0.59573896    0.55999378
 C                 -1.89599864    0.75730995   -0.68834937
 C                 -2.05975793    0.79689781    1.71182781
 C                 -3.23554136    1.11683504   -0.78453364
 H                 -1.29993725    0.60568035   -1.60258361
 C                 -3.39936538    1.15369139    1.61396939
 H                 -1.60452305    0.67198049    2.70152854
 C                 -3.99042493    1.31558539    0.36561713
 H                 -3.69462755    1.24415826   -1.77026194
 H                 -3.98952385    1.30848663    2.52300081
 H                 -5.04495014    1.59892409    0.28921124
 C                  1.08135868    0.97263773   -0.19268587
 C                  1.09393267    0.76136472   -1.57235161
 C                  1.96546712    1.90279994    0.35937512
 C                  1.97953604    1.45847854   -2.38528042
 H                  0.37682299    0.04956618   -2.00884219
 C                  2.84869295    2.60213196   -0.45544720
 H                  1.96594904    2.08399182    1.44072903
 C                  2.86028368    2.37910635   -1.82792829
 H                  1.98170932    1.28163338   -3.46566139
 H                  3.53766167    3.32929469   -0.01349471
 H                  3.55912854    2.92747527   -2.46757706

 1 2 1.0 3 1.0 14 1.0 25 1.0
 2
 3 4 1.5 5 1.5
 4 6 1.5 7 1.0
 5 8 1.5 9 1.0
 6 10 1.5 11 1.0
 7
 8 10 1.5 12 1.0
 9
 10 13 1.0
 11
 12
 13
 14 15 1.5 16 1.5
 15 17 1.5 18 1.0
 16 19 1.5 20 1.0
 17 21 1.5 22 1.0
 18
 19 21 1.5 23 1.0
 20
 21 24 1.0
 22
 23
 24
 25 26 1.5 27 1.5
 26 28 1.5 29 1.0
 27 30 1.5 31 1.0
 28 32 1.5 33 1.0
 29
 30 32 1.5 34 1.0
 31
 32 35 1.0
 33
 34
 35

