%nprocshared=12
# opt freq=noraman hf/6-311g geom=connectivity

M0001

0 1
 C                 -0.28298272   -0.71347609   -0.02814800
 H                 -0.75634828   -1.73227501   -0.06464466
 C                 -0.38528290   -0.23055189    1.39791981
 C                 -0.01684773    1.06440003    1.76622390
 C                 -0.88281249   -1.09788489    2.37360539
 C                 -0.15213745    1.48951537    3.08232407
 H                  0.40244559    1.73670168    1.00221340
 C                 -1.01464684   -0.67239733    3.69063364
 H                 -1.17255857   -2.11997561    2.10226473
 C                 -0.65345119    0.62227265    4.04695990
 H                  0.13746638    2.50869038    3.35798610
 H                 -1.40576682   -1.35940476    4.44808515
 H                 -0.76182373    0.95709347    5.08346758
 C                  1.14041417   -0.89069575   -0.49505643
 C                  2.14018526    0.05049695   -0.24409893
 C                  1.46500763   -2.04638393   -1.21199413
 C                  3.43805384   -0.16019307   -0.69572584
 H                  1.89632699    0.96285166    0.32379684
 C                  2.76217517   -2.25405886   -1.66539997
 H                  0.69273085   -2.79620566   -1.42097575
 C                  3.75219928   -1.31201477   -1.40758052
 H                  4.21328565    0.58447781   -0.48810865
 H                  3.00416147   -3.16267540   -2.22629044
 H                  4.77418644   -1.47742129   -1.76306958
 C                 -1.09828277    0.17076370   -0.94101463
 C                 -0.54839967    1.25218392   -1.62853965
 C                 -2.46054985   -0.10765323   -1.09190534
 C                 -1.34433876    2.04124589   -2.45234554
 H                  0.52082165    1.47792125   -1.52761782
 C                 -3.25404119    0.68296341   -1.91357658
 H                 -2.90856099   -0.95273432   -0.55630213
 C                 -2.69753839    1.75974978   -2.59622063
 H                 -0.90041599    2.88603318   -2.98886385
 H                 -4.31960800    0.45703615   -2.02359666
 H                 -3.32306617    2.38160470   -3.24440498

 1 2 1.0 3 1.0 14 1.0 25 1.0
 2
 3 4 1.5 5 1.5
 4 6 1.5 7 1.0
 5 8 1.5 9 1.0
 6 10 1.5 11 1.0
 7
 8 10 1.5 12 1.0
 9
 10 13 1.0
 11
 12
 13
 14 15 1.5 16 1.5
 15 17 1.5 18 1.0
 16 19 1.5 20 1.0
 17 21 1.5 22 1.0
 18
 19 21 1.5 23 1.0
 20
 21 24 1.0
 22
 23
 24
 25 26 1.5 27 1.5
 26 28 1.5 29 1.0
 27 30 1.5 31 1.0
 28 32 1.5 33 1.0
 29
 30 32 1.5 34 1.0
 31
 32 35 1.0
 33
 34
 35

