%nprocshared=12
# opt freq=noraman hf/6-311g geom=connectivity

M0001

0 1
 C                 -0.26521041   -0.72259032   -0.09993793
 H                 -0.69056398   -1.74896721   -0.26373310
 C                  1.23713746   -0.85324021   -0.07481646
 C                  2.06805977    0.25621344    0.09808475
 C                  1.81328374   -2.11506669   -0.23758238
 C                  3.44933204    0.10670240    0.10935390
 H                  1.61286304    1.25289090    0.21094990
 C                  3.19600246   -2.26236810   -0.22611072
 H                  1.17493309   -2.99579941   -0.37570188
 C                  4.01606373   -1.15330308   -0.05196716
 H                  4.09096199    0.98355016    0.24386922
 H                  3.63855688   -3.25545616   -0.35523203
 H                  5.10435712   -1.27082811   -0.04339581
 C                 -0.70077181    0.15036090   -1.25232733
 C                 -1.37746679   -0.42343536   -2.33055619
 C                 -0.44396907    1.52281131   -1.26092032
 C                 -1.79310282    0.36595364   -3.39726693
 H                 -1.58266940   -1.50031894   -2.33947156
 C                 -0.86218743    2.30974809   -2.32682231
 H                  0.10950058    1.96837633   -0.42014837
 C                 -1.53876415    1.73275926   -3.39651089
 H                 -2.32244290   -0.09165821   -4.23920248
 H                 -0.65689587    3.38507325   -2.32369149
 H                 -1.86836918    2.35296013   -4.23614675
 C                 -0.86873346   -0.25955313    1.20307447
 C                 -2.24155122    0.00657265    1.24729284
 C                 -0.12022717   -0.14466002    2.37386411
 C                 -2.84825479    0.38622129    2.43712169
 H                 -2.83737898   -0.08170587    0.33081960
 C                 -0.73030916    0.23468027    3.56526694
 H                  0.95692567   -0.35380902    2.35710295
 C                 -2.09325533    0.50156975    3.60033610
 H                 -3.92285646    0.59433611    2.45869942
 H                 -0.13120167    0.32157376    4.47745967
 H                 -2.57179556    0.80040620    4.53824668

 1 2 1.0 3 1.0 14 1.0 25 1.0
 2
 3 4 1.5 5 1.5
 4 6 1.5 7 1.0
 5 8 1.5 9 1.0
 6 10 1.5 11 1.0
 7
 8 10 1.5 12 1.0
 9
 10 13 1.0
 11
 12
 13
 14 15 1.5 16 1.5
 15 17 1.5 18 1.0
 16 19 1.5 20 1.0
 17 21 1.5 22 1.0
 18
 19 21 1.5 23 1.0
 20
 21 24 1.0
 22
 23
 24
 25 26 1.5 27 1.5
 26 28 1.5 29 1.0
 27 30 1.5 31 1.0
 28 32 1.5 33 1.0
 29
 30 32 1.5 34 1.0
 31
 32 35 1.0
 33
 34
 35

