%nprocshared=12
# opt freq=noraman hf/6-311g geom=connectivity

M0001

0 1
 C                 -0.19579198   -0.72367217    0.19435320
 H                 -0.45288894   -1.79201399    0.42705128
 C                 -0.25845858    0.04593899    1.48979615
 C                 -0.65979661   -0.61564587    2.65259002
 C                  0.08148880    1.39889694    1.56106024
 C                 -0.71928164    0.06551966    3.86328105
 H                 -0.92968039   -1.67775409    2.61354833
 C                  0.02213861    2.07733604    2.77203739
 H                  0.40988958    1.91761225    0.64627544
 C                 -0.37895764    1.41216410    3.92556103
 H                 -1.03468715   -0.46178065    4.76941094
 H                  0.29379233    3.13698506    2.81646849
 H                 -0.42534595    1.94688633    4.87961533
 C                  1.20151859   -0.69798035   -0.37746674
 C                  1.96479168   -1.86748260   -0.37582195
 C                  1.74525943    0.47033491   -0.91515797
 C                  3.24931823   -1.86663777   -0.90839879
 H                  1.55265108   -2.79119006    0.04704603
 C                  3.02773732    0.46792779   -1.44958804
 H                  1.15084934    1.39633117   -0.89235197
 C                  3.78160757   -0.70114731   -1.44845608
 H                  3.84175983   -2.78734443   -0.90216032
 H                  3.44427729    1.38859238   -1.87075699
 H                  4.79184895   -0.70307436   -1.87000947
 C                 -1.21264613   -0.29429155   -0.83459121
 C                 -2.15882299    0.69998222   -0.59096266
 C                 -1.23003341   -0.96048777   -2.06525492
 C                 -3.10246641    1.02628900   -1.56016905
 H                 -2.16228889    1.22925594    0.37055198
 C                 -2.17109471   -0.63201031   -3.03151411
 H                 -0.48857565   -1.74343112   -2.26460245
 C                 -3.11088530    0.36349270   -2.78096985
 H                 -3.84068703    1.80867069   -1.35614328
 H                 -2.17324523   -1.15815791   -3.99164326
 H                 -3.85329410    0.62188593   -3.54262768

 1 2 1.0 3 1.0 14 1.0 25 1.0
 2
 3 4 1.5 5 1.5
 4 6 1.5 7 1.0
 5 8 1.5 9 1.0
 6 10 1.5 11 1.0
 7
 8 10 1.5 12 1.0
 9
 10 13 1.0
 11
 12
 13
 14 15 1.5 16 1.5
 15 17 1.5 18 1.0
 16 19 1.5 20 1.0
 17 21 1.5 22 1.0
 18
 19 21 1.5 23 1.0
 20
 21 24 1.0
 22
 23
 24
 25 26 1.5 27 1.5
 26 28 1.5 29 1.0
 27 30 1.5 31 1.0
 28 32 1.5 33 1.0
 29
 30 32 1.5 34 1.0
 31
 32 35 1.0
 33
 34
 35

