%nprocshared=12
# opt freq=noraman hf/6-311g geom=connectivity

M0001

0 1
 C                 -0.22071676   -0.05939485   -0.74695559
 H                 -0.53460671   -0.13633400   -1.82229869
 C                 -1.51157714    0.10994208    0.01492788
 C                 -2.20018364   -0.99962953    0.51038653
 C                 -2.07501951    1.37954990    0.16719038
 C                 -3.42291276   -0.84120190    1.15234649
 H                 -1.77066184   -2.00247556    0.39433368
 C                 -3.29722930    1.53564417    0.80967739
 H                 -1.54509247    2.25827338   -0.22075190
 C                 -3.97416623    0.42600361    1.30448219
 H                 -3.95196295   -1.71893641    1.53776543
 H                 -3.72702627    2.53601582    0.92484594
 H                 -4.93684971    0.54982178    1.81046973
 C                  0.52089023   -1.32416298   -0.38934814
 C                  0.97284078   -1.55995595    0.91100430
 C                  0.76955109   -2.27623339   -1.38030483
 C                  1.65745887   -2.72960764    1.21643636
 H                  0.79342334   -0.79764686    1.68506732
 C                  1.45677094   -3.44546233   -1.07239098
 H                  0.42384108   -2.10377040   -2.40652519
 C                  1.90012506   -3.67507186    0.22500188
 H                  2.00791322   -2.90470800    2.23881696
 H                  1.64924355   -4.18580125   -1.85558632
 H                  2.44030961   -4.59623107    0.46574446
 C                  0.69679261    1.13177535   -0.61412089
 C                  1.08056301    1.83346904   -1.75868915
 C                  1.17605622    1.54425441    0.63121040
 C                  1.92699451    2.93224670   -1.65621652
 H                  0.71579489    1.51899472   -2.74360115
 C                  2.01991634    2.64344023    0.73113637
 H                  0.88870107    0.97525319    1.52908698
 C                  2.39598509    3.34028306   -0.41264935
 H                  2.22410467    3.47627965   -2.55872107
 H                  2.38978890    2.95910912    1.71203509
 H                  3.06094065    4.20626749   -0.33380591

 1 2 1.0 3 1.0 14 1.0 25 1.0
 2
 3 4 1.5 5 1.5
 4 6 1.5 7 1.0
 5 8 1.5 9 1.0
 6 10 1.5 11 1.0
 7
 8 10 1.5 12 1.0
 9
 10 13 1.0
 11
 12
 13
 14 15 1.5 16 1.5
 15 17 1.5 18 1.0
 16 19 1.5 20 1.0
 17 21 1.5 22 1.0
 18
 19 21 1.5 23 1.0
 20
 21 24 1.0
 22
 23
 24
 25 26 1.5 27 1.5
 26 28 1.5 29 1.0
 27 30 1.5 31 1.0
 28 32 1.5 33 1.0
 29
 30 32 1.5 34 1.0
 31
 32 35 1.0
 33
 34
 35

