%nprocshared=12
# opt freq=noraman hf/6-311g geom=connectivity

M0001

0 1
 C                 -0.76453058    0.07634641    0.10586662
 H                 -1.87731646    0.18966490    0.20677866
 C                 -0.24981220    1.48181716   -0.08406621
 C                  0.49750641    2.14374281    0.88936116
 C                 -0.58595405    2.16197789   -1.25966162
 C                  0.90619720    3.45867890    0.69002385
 H                  0.76626496    1.62604876    1.81903690
 C                 -0.17573267    3.47356995   -1.45736420
 H                 -1.17361179    1.64833845   -2.03008760
 C                  0.57225498    4.12598205   -0.48188351
 H                  1.49262291    3.96713949    1.46227412
 H                 -0.44242753    3.99447700   -2.38271343
 H                  0.89503881    5.16021680   -0.63763192
 C                 -0.26395430   -0.60434450    1.35509382
 C                  1.08648535   -0.91437860    1.53263262
 C                 -1.17622317   -0.94174786    2.35756153
 C                  1.51706153   -1.54863923    2.69142687
 H                  1.80292663   -0.66165159    0.73490480
 C                 -0.74315531   -1.57677659    3.51639954
 H                 -2.23999227   -0.70639559    2.23300438
 C                  0.60298435   -1.88039828    3.68614860
 H                  2.57777547   -1.78825122    2.81917486
 H                 -1.46596026   -1.83821386    4.29622541
 H                  0.94242489   -2.38034875    4.59890897
 C                 -0.49304005   -0.77853372   -1.10869989
 C                  0.80600865   -0.97960753   -1.57957181
 C                 -1.56146252   -1.37772837   -1.77900390
 C                  1.03256806   -1.76016942   -2.70666627
 H                  1.64829347   -0.52598366   -1.03500688
 C                 -1.33202772   -2.16016969   -2.90572746
 H                 -2.58623199   -1.23362435   -1.41757409
 C                 -0.03656387   -2.35038335   -3.37298833
 H                  2.05484976   -1.91044364   -3.06878698
 H                 -2.17516276   -2.62608835   -3.42570671
 H                  0.14189586   -2.96412233   -4.26168204

 1 2 1.0 3 1.0 14 1.0 25 1.0
 2
 3 4 1.5 5 1.5
 4 6 1.5 7 1.0
 5 8 1.5 9 1.0
 6 10 1.5 11 1.0
 7
 8 10 1.5 12 1.0
 9
 10 13 1.0
 11
 12
 13
 14 15 1.5 16 1.5
 15 17 1.5 18 1.0
 16 19 1.5 20 1.0
 17 21 1.5 22 1.0
 18
 19 21 1.5 23 1.0
 20
 21 24 1.0
 22
 23
 24
 25 26 1.5 27 1.5
 26 28 1.5 29 1.0
 27 30 1.5 31 1.0
 28 32 1.5 33 1.0
 29
 30 32 1.5 34 1.0
 31
 32 35 1.0
 33
 34
 35

