%nprocshared=12
# opt freq=noraman hf/6-311g geom=connectivity

M0001

0 1
 C                 -0.76217796    0.01164047   -0.14162588
 H                 -1.87468740    0.01376697   -0.29541293
 C                 -0.11905700   -0.12891774   -1.49849550
 C                  1.26717578   -0.20605294   -1.65136539
 C                 -0.93203899   -0.19138891   -2.63259326
 C                  1.83025006   -0.34235598   -2.91430849
 H                  1.90731626   -0.17069618   -0.75565299
 C                 -0.36642762   -0.32696825   -3.89580619
 H                 -2.02214682   -0.13363038   -2.52974057
 C                  1.01449544   -0.40178926   -4.03938108
 H                  2.91795918   -0.40454246   -3.02162643
 H                 -1.01207890   -0.37578432   -4.77870112
 H                  1.45836450   -0.50859347   -5.03427870
 C                 -0.46595867    1.31767908    0.55359571
 C                 -0.96922465    1.51317414    1.84453435
 C                  0.24055482    2.35128184   -0.05986730
 C                 -0.76215489    2.71528541    2.50752158
 H                 -1.52624090    0.70497231    2.33362589
 C                  0.44526276    3.55594930    0.60562151
 H                  0.63833366    2.21605488   -1.07374393
 C                 -0.05353416    3.74088087    1.88896836
 H                 -1.15802609    2.85543483    3.51853281
 H                  1.00146646    4.35988246    0.11259416
 H                  0.10900141    4.68884899    2.41145644
 C                 -0.41740856   -1.16772131    0.73590881
 C                 -1.41177240   -2.09081402    1.06668671
 C                  0.87582682   -1.35242375    1.22929193
 C                 -1.11553977   -3.17800117    1.88154585
 H                 -2.43077723   -1.96112411    0.68346845
 C                  1.16873870   -2.43786386    2.04563451
 H                  1.66281298   -0.63630865    0.94762855
 C                  0.17302842   -3.35202598    2.37432735
 H                 -1.90054988   -3.89805006    2.13508256
 H                  2.18543933   -2.57281248    2.42877641
 H                  0.40377515   -4.20698617    3.01779784

 1 2 1.0 3 1.0 14 1.0 25 1.0
 2
 3 4 1.5 5 1.5
 4 6 1.5 7 1.0
 5 8 1.5 9 1.0
 6 10 1.5 11 1.0
 7
 8 10 1.5 12 1.0
 9
 10 13 1.0
 11
 12
 13
 14 15 1.5 16 1.5
 15 17 1.5 18 1.0
 16 19 1.5 20 1.0
 17 21 1.5 22 1.0
 18
 19 21 1.5 23 1.0
 20
 21 24 1.0
 22
 23
 24
 25 26 1.5 27 1.5
 26 28 1.5 29 1.0
 27 30 1.5 31 1.0
 28 32 1.5 33 1.0
 29
 30 32 1.5 34 1.0
 31
 32 35 1.0
 33
 34
 35

