%nprocshared=12
# opt freq=noraman hf/6-311g geom=connectivity

M0001

0 1
 C                  0.00000000    0.00000000    0.79555973
 H                  0.00000000    0.00000000    1.91825271
 C                  0.00898109   -1.44340720    0.35527743
 C                  0.55550191   -1.83982372   -0.86613758
 C                 -0.54995608   -2.40888580    1.19704170
 C                  0.54510845   -3.17933686   -1.23909187
 H                  1.00373785   -1.08727959   -1.52822463
 C                 -0.56126275   -3.74662699    0.82039222
 H                 -0.98473367   -2.11192312    2.15848151
 C                 -0.01351207   -4.13471088   -0.39778936
 H                  0.97977787   -3.48013614   -2.19783928
 H                 -1.00230600   -4.49608872    1.48554812
 H                 -0.02135474   -5.18896457   -0.69226243
 C                 -1.25451786    0.71392573    0.35527743
 C                 -1.87108503    0.43883309   -0.86613758
 C                 -1.81117830    1.68071886    1.19704170
 C                 -3.02594071    1.11759071   -1.23909187
 H                 -1.44348070   -0.32562266   -1.52822463
 C                 -2.96404274    2.35938127    0.82039222
 H                 -1.33661219    1.90876594    2.15848151
 C                 -3.57400858    2.07905719   -0.39778936
 H                 -3.50377523    0.89155555   -2.19783928
 H                 -3.39257408    3.11606685    1.48554812
 H                 -4.48309774    2.61297602   -0.69226243
 C                  1.24553677    0.72948142    0.35527743
 C                  2.36113438    0.72816700    1.19704170
 C                  1.31558311    1.40099063   -0.86613758
 C                  3.52530549    1.38724567    0.82039222
 H                  2.32134591    0.20315718    2.15848151
 C                  2.48083232    2.06174621   -1.23909187
 H                  0.43974285    1.41290230   -1.52822463
 C                  3.58752065    2.05565364   -0.39778936
 H                  4.39488008    1.38002193    1.48554812
 H                  2.52399736    2.58858058   -2.19783928
 H                  4.50445247    2.57598854   -0.69226243

 1 2 1.0 3 1.0 14 1.0 25 1.0
 2
 3 4 1.5 5 1.5
 4 6 1.5 7 1.0
 5 8 1.5 9 1.0
 6 10 1.5 11 1.0
 7
 8 10 1.5 12 1.0
 9
 10 13 1.0
 11
 12
 13
 14 15 1.5 16 1.5
 15 17 1.5 18 1.0
 16 19 1.5 20 1.0
 17 21 1.5 22 1.0
 18
 19 21 1.5 23 1.0
 20
 21 24 1.0
 22
 23
 24
 25 26 1.5 27 1.5
 26 28 1.5 29 1.0
 27 30 1.5 31 1.0
 28 32 1.5 33 1.0
 29
 30 32 1.5 34 1.0
 31
 32 35 1.0
 33
 34
 35

