%nprocshared=12
# opt freq=noraman hf/6-311g geom=connectivity

M0001

0 1
 C                  0.25459654   -0.05105232   -0.72961848
 H                  0.62415181   -0.12613606   -1.78919739
 C                 -1.25220980    0.00393015   -0.79883052
 C                 -2.04720643    0.10192700    0.34417948
 C                 -1.87058887   -0.04542823   -2.05081733
 C                 -3.43185728    0.14982130    0.24094631
 H                 -1.55637173    0.14054440    1.33308999
 C                 -3.25621902    0.00229663   -2.15352799
 H                 -1.26191216   -0.12238748   -2.95963284
 C                 -4.03960815    0.09997243   -1.00883981
 H                 -4.04325127    0.22687845    1.14576802
 H                 -3.73060234   -0.03734028   -3.13949109
 H                 -5.13048429    0.13745977   -1.09119746
 C                  0.74487180   -1.28423486   -0.01047237
 C                  1.50431264   -2.21917152   -0.71866620
 C                  0.46499292   -1.52148328    1.33620367
 C                  1.97189408   -3.36725988   -0.08947207
 H                  1.73468816   -2.04896103   -1.77722888
 C                  0.93263146   -2.66893234    1.96451397
 H                 -0.13475742   -0.78062291    1.89433956
 C                  1.68726494   -3.59492955    1.25246883
 H                  2.56573203   -4.09356777   -0.65361921
 H                  0.70563601   -2.84245787    3.02126993
 H                  2.05586086   -4.49946514    1.74656671
 C                  0.84327453    1.21366426   -0.15330164
 C                  1.66866060    2.00067360   -0.96056646
 C                  0.59133414    1.62238542    1.15729932
 C                  2.22943560    3.17164406   -0.46341062
 H                  1.87711399    1.69566483   -1.99290465
 C                  1.15181508    2.79281278    1.65349660
 H                 -0.06186399    0.99901425    1.79385568
 C                  1.97270034    3.57021988    0.84379630
 H                  2.87512461    3.78069537   -1.10433979
 H                  0.94584078    3.10143684    2.68344513
 H                  2.41499986    4.49238913    1.23389529

 1 2 1.0 3 1.0 14 1.0 25 1.0
 2
 3 4 1.5 5 1.5
 4 6 1.5 7 1.0
 5 8 1.5 9 1.0
 6 10 1.5 11 1.0
 7
 8 10 1.5 12 1.0
 9
 10 13 1.0
 11
 12
 13
 14 15 1.5 16 1.5
 15 17 1.5 18 1.0
 16 19 1.5 20 1.0
 17 21 1.5 22 1.0
 18
 19 21 1.5 23 1.0
 20
 21 24 1.0
 22
 23
 24
 25 26 1.5 27 1.5
 26 28 1.5 29 1.0
 27 30 1.5 31 1.0
 28 32 1.5 33 1.0
 29
 30 32 1.5 34 1.0
 31
 32 35 1.0
 33
 34
 35

