%nprocshared=12
# opt freq=noraman hf/6-311g geom=connectivity

M0001

0 1
 C                 -0.00547132    0.23429656   -0.74072945
 H                 -0.04619924    0.60323047   -1.80062328
 C                 -1.40843689    0.26391355   -0.18342210
 C                 -2.47671944    0.57011287   -1.02892124
 C                 -1.66041258   -0.00667372    1.16309566
 C                 -3.77493761    0.60878387   -0.53187378
 H                 -2.29479635    0.78033038   -2.08942102
 C                 -2.95803044    0.03514779    1.65786284
 H                 -0.81885020   -0.27061992    1.82174078
 C                 -4.01764761    0.34432960    0.81130752
 H                 -4.60721033    0.84867500   -1.20156822
 H                 -3.14506512   -0.17706398    2.71548385
 H                 -5.03993709    0.37746562    1.20128951
 C                  0.51888041   -1.17965140   -0.77140395
 C                  0.83992114   -1.76052159   -2.00032657
 C                  0.68345311   -1.92663022    0.39743677
 C                  1.31814375   -3.06520905   -2.05655197
 H                  0.71504261   -1.18801245   -2.92706706
 C                  1.16183024   -3.22977688    0.33885421
 H                  0.41455365   -1.47268446    1.36436034
 C                  1.48096852   -3.80140547   -0.88850363
 H                  1.56609568   -3.51255629   -3.02459311
 H                  1.28539016   -3.80660114    1.26117385
 H                  1.85747781   -4.82824582   -0.93444188
 C                  0.89599170    1.21207271   -0.02833120
 C                  2.19202812    0.87944591    0.36488549
 C                  0.43510805    2.51492906    0.18902344
 C                  3.01024685    1.82878540    0.96873875
 H                  2.56984771   -0.13737314    0.19846459
 C                  1.25298166    3.46061807    0.79311933
 H                 -0.58277063    2.78470060   -0.11732082
 C                  2.54391543    3.11963255    1.18482230
 H                  4.02565454    1.55475012    1.27305367
 H                  0.88019745    4.47629627    0.96024461
 H                  3.18875627    3.86550920    1.66014196

 1 2 1.0 3 1.0 14 1.0 25 1.0
 2
 3 4 1.5 5 1.5
 4 6 1.5 7 1.0
 5 8 1.5 9 1.0
 6 10 1.5 11 1.0
 7
 8 10 1.5 12 1.0
 9
 10 13 1.0
 11
 12
 13
 14 15 1.5 16 1.5
 15 17 1.5 18 1.0
 16 19 1.5 20 1.0
 17 21 1.5 22 1.0
 18
 19 21 1.5 23 1.0
 20
 21 24 1.0
 22
 23
 24
 25 26 1.5 27 1.5
 26 28 1.5 29 1.0
 27 30 1.5 31 1.0
 28 32 1.5 33 1.0
 29
 30 32 1.5 34 1.0
 31
 32 35 1.0
 33
 34
 35

