%nprocshared=12
# opt freq=noraman hf/6-311g geom=connectivity

M0001

0 1
 C                  0.06388423    0.75990149    0.09162260
 H                  0.19781984    1.87276098    0.17505633
 C                  1.44268302    0.17603161   -0.10361624
 C                  2.40276952    0.94871781   -0.76516263
 C                  1.78951198   -1.09945945    0.34097822
 C                  3.68241843    0.45153668   -0.97738228
 H                  2.14523191    1.95247032   -1.12309510
 C                  3.07200734   -1.59448656    0.12922461
 H                  1.05019749   -1.71445883    0.86982806
 C                  4.02034663   -0.82185809   -0.53035943
 H                  4.42592601    1.06419466   -1.49757871
 H                  3.33288484   -2.59650983    0.48520373
 H                  5.02909800   -1.21270264   -0.69693961
 C                 -0.59019482    0.31446157    1.37589858
 C                 -0.53523051    1.16982219    2.48059244
 C                 -1.24211527   -0.91295728    1.50511948
 C                 -1.12175538    0.80352581    3.68605043
 H                 -0.02540024    2.13720572    2.39935627
 C                 -1.83045744   -1.27684713    2.71102209
 H                 -1.29575373   -1.59263937    0.63950631
 C                 -1.77154197   -0.42034015    3.80415174
 H                 -1.07239870    1.48174075    4.54396143
 H                 -2.34192752   -2.24104834    2.79706456
 H                 -2.23506039   -0.70734033    4.75332109
 C                 -0.78887654    0.50831512   -1.12781774
 C                 -1.03362123   -0.78100434   -1.60318656
 C                 -1.33148817    1.59838163   -1.81268735
 C                 -1.79769142   -0.97850297   -2.74700027
 H                 -0.62970754   -1.63985764   -1.04584110
 C                 -2.09853626    1.39928144   -2.95515500
 H                 -1.15269659    2.61763839   -1.45039096
 C                 -2.33008480    0.11177187   -3.42659261
 H                 -1.98007559   -1.99457975   -3.11145501
 H                 -2.51949559    2.25992241   -3.48512591
 H                 -2.93066986   -0.04308794   -4.32857147

 1 2 1.0 3 1.0 14 1.0 25 1.0
 2
 3 4 1.5 5 1.5
 4 6 1.5 7 1.0
 5 8 1.5 9 1.0
 6 10 1.5 11 1.0
 7
 8 10 1.5 12 1.0
 9
 10 13 1.0
 11
 12
 13
 14 15 1.5 16 1.5
 15 17 1.5 18 1.0
 16 19 1.5 20 1.0
 17 21 1.5 22 1.0
 18
 19 21 1.5 23 1.0
 20
 21 24 1.0
 22
 23
 24
 25 26 1.5 27 1.5
 26 28 1.5 29 1.0
 27 30 1.5 31 1.0
 28 32 1.5 33 1.0
 29
 30 32 1.5 34 1.0
 31
 32 35 1.0
 33
 34
 35

