%nprocshared=12
# opt freq=noraman hf/6-311g geom=connectivity

M0001

0 1
 C                  0.00000000    0.00000000   -0.79507527
 H                  0.00000000    0.00000000   -1.91777756
 C                  0.93815617   -1.09603933   -0.35528362
 C                  1.13388624   -2.19405254   -1.19738794
 C                  1.61121629   -1.04700968    0.86624114
 C                  1.98747412   -3.22414548   -0.82068644
 H                  0.61061842   -2.24699677   -2.15915330
 C                  2.46651849   -2.07794211    1.23932756
 H                  1.46881147   -0.18282624    1.52838428
 C                  2.65557828   -3.16827304    0.39791991
 H                  2.13381756   -4.08112089   -1.48608127
 H                  2.99223868   -2.02800794    2.19834993
 H                  3.32876101   -3.97955590    0.69265391
 C                  0.48011982    1.36048671   -0.35528362
 C                  0.10112884    1.91885909    0.86624114
 C                  1.33316212    2.07900057   -1.19738794
 C                  0.56629141    3.17503873    1.23932756
 H                 -0.57607357    1.36344116    1.52838428
 C                  1.79845481    3.33327585   -0.82068644
 H                  1.64064712    1.65230944   -2.15915330
 C                  1.41601582    3.88393478    0.39791991
 H                  0.26018703    3.60535868    2.19834993
 H                  2.46744556    3.88850063   -1.48608127
 H                  1.78201597    4.87256955    0.69265391
 C                 -1.41827599   -0.26444739   -0.35528362
 C                 -1.71234513   -0.87184942    0.86624114
 C                 -2.46704836    0.11505197   -1.19738794
 C                 -3.03280991   -1.09709662    1.23932756
 H                 -0.89273789   -1.18061492    1.52838428
 C                 -3.78592899   -0.10913037   -0.82068644
 H                 -2.25126554    0.59468733   -2.15915330
 C                 -4.07159411   -0.71566175    0.39791991
 H                 -3.25242572   -1.57735075    2.19834993
 H                 -4.60126312    0.19262020   -1.48608127
 H                 -5.11077699   -0.89301365    0.69265391

 1 2 1.0 3 1.0 14 1.0 25 1.0
 2
 3 4 1.5 5 1.5
 4 6 1.5 7 1.0
 5 8 1.5 9 1.0
 6 10 1.5 11 1.0
 7
 8 10 1.5 12 1.0
 9
 10 13 1.0
 11
 12
 13
 14 15 1.5 16 1.5
 15 17 1.5 18 1.0
 16 19 1.5 20 1.0
 17 21 1.5 22 1.0
 18
 19 21 1.5 23 1.0
 20
 21 24 1.0
 22
 23
 24
 25 26 1.5 27 1.5
 26 28 1.5 29 1.0
 27 30 1.5 31 1.0
 28 32 1.5 33 1.0
 29
 30 32 1.5 34 1.0
 31
 32 35 1.0
 33
 34
 35

