%nprocshared=12
# opt freq=noraman hf/6-311g geom=connectivity

M0001

0 1
 C                  0.00000000    0.00000000    0.79515581
 H                  0.00000000    0.00000000    1.91784778
 C                 -0.97864876    1.06099234    0.35530649
 C                 -1.21662744    2.14990603    1.19843142
 C                 -1.64784171    0.98804340   -0.86722002
 C                 -2.10787957    3.14752484    0.82170813
 H                 -0.69712768    2.22123976    2.16110115
 C                 -2.54071290    1.98652615   -1.24039925
 H                 -1.47227551    0.13057708   -1.53015210
 C                 -2.77177100    3.06796088   -0.39795727
 H                 -2.28736347    3.99750580    1.48797250
 H                 -3.06266402    1.91811338   -2.20040838
 H                 -3.47462031    3.85365071   -0.69271720
 C                  1.40817072    0.31703850    0.35530649
 C                  1.67959155    0.93305109   -0.86722002
 C                  2.47018696   -0.02132277    1.19843142
 C                  2.99073857    1.20705881   -1.24039925
 H                  0.84922079    1.20973946   -1.53015210
 C                  3.77977624    0.25171485    0.82170813
 H                  2.27221387   -0.50688957    2.16110115
 C                  4.04281756    0.86644366   -0.39795727
 H                  3.19246692    1.69328819   -2.20040838
 H                  4.60562333   -0.01783804    1.48797250
 H                  5.07466959    1.08228405   -0.69271720
 C                 -0.42952195   -1.37803085    0.35530649
 C                 -0.03174984   -1.92109450   -0.86722002
 C                 -1.25355952   -2.12858326    1.19843142
 C                 -0.45002567   -3.19358502   -1.24039925
 H                  0.62305472   -1.34031649   -1.53015210
 C                 -1.67189668   -3.39923970    0.82170813
 H                 -1.57508619   -1.71435013    2.16110115
 C                 -1.27104660   -3.93440454   -0.39795727
 H                 -0.12980289   -3.61140152   -2.20040838
 H                 -2.31825986   -3.97966776    1.48797250
 H                 -1.60004928   -4.93593482   -0.69271720

 1 2 1.0 3 1.0 14 1.0 25 1.0
 2
 3 4 1.5 5 1.5
 4 6 1.5 7 1.0
 5 8 1.5 9 1.0
 6 10 1.5 11 1.0
 7
 8 10 1.5 12 1.0
 9
 10 13 1.0
 11
 12
 13
 14 15 1.5 16 1.5
 15 17 1.5 18 1.0
 16 19 1.5 20 1.0
 17 21 1.5 22 1.0
 18
 19 21 1.5 23 1.0
 20
 21 24 1.0
 22
 23
 24
 25 26 1.5 27 1.5
 26 28 1.5 29 1.0
 27 30 1.5 31 1.0
 28 32 1.5 33 1.0
 29
 30 32 1.5 34 1.0
 31
 32 35 1.0
 33
 34
 35

