%nprocshared=12
# opt freq=noraman hf/6-311g geom=connectivity

M0001

0 1
 C                  0.21792779    0.74038745   -0.06476415
 H                  0.48183716    1.82897829   -0.14648663
 C                  0.23357328    0.44914522    1.41565498
 C                  1.18157607   -0.38406759    2.00779384
 C                 -0.71153310    1.08576053    2.22787453
 C                  1.18272565   -0.58185584    3.38511300
 H                  1.93265379   -0.88769875    1.38592765
 C                 -0.70967903    0.88569375    3.60172112
 H                 -1.46064573    1.74254343    1.76962354
 C                  0.23862227    0.05033164    4.18446227
 H                  1.93288065   -1.23840113    3.83782180
 H                 -1.45573566    1.38718709    4.22664818
 H                  0.24037718   -0.10680400    5.26769159
 C                 -1.16319012    0.55335705   -0.64556656
 C                 -1.83167513   -0.66890407   -0.55103190
 C                 -1.78898249    1.62495606   -1.28581054
 C                 -3.10754058   -0.81555311   -1.08130745
 H                 -1.32638113   -1.51859191   -0.06707105
 C                 -3.06479661    1.47493415   -1.81826340
 H                 -1.27476836    2.58942383   -1.37127135
 C                 -3.72695160    0.25672865   -1.71486439
 H                 -3.62406340   -1.77744801   -1.00039366
 H                 -3.54809572    2.31979691   -2.31959439
 H                 -4.73222830    0.14116777   -2.13238529
 C                  1.23937466   -0.03222885   -0.86103542
 C                  2.28115876    0.66015910   -1.48255441
 C                  1.16734104   -1.42015261   -1.00120214
 C                  3.23275863   -0.02525800   -2.22972575
 H                  2.35163052    1.74983559   -1.38289483
 C                  2.11915544   -2.10302675   -1.74840872
 H                  0.33771632   -1.96421789   -0.52239134
 C                  3.15434282   -1.40686090   -2.36366522
 H                  4.04520684    0.52640854   -2.71384197
 H                  2.05150166   -3.19072259   -1.85318640
 H                  3.90390652   -1.94500299   -2.95261558

 1 2 1.0 3 1.0 14 1.0 25 1.0
 2
 3 4 1.5 5 1.5
 4 6 1.5 7 1.0
 5 8 1.5 9 1.0
 6 10 1.5 11 1.0
 7
 8 10 1.5 12 1.0
 9
 10 13 1.0
 11
 12
 13
 14 15 1.5 16 1.5
 15 17 1.5 18 1.0
 16 19 1.5 20 1.0
 17 21 1.5 22 1.0
 18
 19 21 1.5 23 1.0
 20
 21 24 1.0
 22
 23
 24
 25 26 1.5 27 1.5
 26 28 1.5 29 1.0
 27 30 1.5 31 1.0
 28 32 1.5 33 1.0
 29
 30 32 1.5 34 1.0
 31
 32 35 1.0
 33
 34
 35

