%nprocshared=12
# opt freq=noraman hf/6-311g geom=connectivity

M0001

0 1
 C                 -0.05065676   -0.00714956    0.77727264
 H                 -0.08295155   -0.01249991    1.89974146
 C                  0.23380459   -1.43863143    0.39517661
 C                  1.51331273   -1.95679750    0.62064130
 C                 -0.75514477   -2.27912445   -0.11564333
 C                  1.79689475   -3.28533684    0.33231675
 H                  2.29656486   -1.30338679    1.02369857
 C                 -0.46938557   -3.61000274   -0.40250825
 H                 -1.76501859   -1.88870361   -0.29412486
 C                  0.80558140   -4.11595985   -0.18085850
 H                  2.80304485   -3.67855443    0.51025218
 H                 -1.25445997   -4.25905912   -0.80401704
 H                  1.02938998   -5.16302917   -0.40795957
 C                 -1.37994975    0.50856601    0.28498751
 C                 -2.34997393    0.89044693    1.21443549
 C                 -1.66185242    0.62266662   -1.07832887
 C                 -3.58035924    1.37624588    0.78534153
 H                 -2.14345314    0.80836317    2.28819381
 C                 -2.89214523    1.10712046   -1.50476393
 H                 -0.88912107    0.33741865   -1.80941984
 C                 -3.85432568    1.48405500   -0.57351574
 H                 -4.33394220    1.67525648    1.52120822
 H                 -3.10206566    1.19334486   -2.57570242
 H                 -4.82357228    1.86597275   -0.90970549
 C                  1.06174965    0.91890232    0.34753869
 C                  1.43495661    1.03108070   -0.99346938
 C                  1.73251711    1.67870634    1.30803678
 C                  2.46644441    1.88342480   -1.36724267
 H                  0.88854798    0.44796664   -1.75065079
 C                  2.76297751    2.53306333    0.93107044
 H                  1.44728872    1.60437329    2.36397590
 C                  3.13327045    2.63511511   -0.40523891
 H                  2.75261452    1.96337825   -2.42093723
 H                  3.28337798    3.12615624    1.69007958
 H                  3.94603977    3.30661151   -0.69988052

 1 2 1.0 3 1.0 14 1.0 25 1.0
 2
 3 4 1.5 5 1.5
 4 6 1.5 7 1.0
 5 8 1.5 9 1.0
 6 10 1.5 11 1.0
 7
 8 10 1.5 12 1.0
 9
 10 13 1.0
 11
 12
 13
 14 15 1.5 16 1.5
 15 17 1.5 18 1.0
 16 19 1.5 20 1.0
 17 21 1.5 22 1.0
 18
 19 21 1.5 23 1.0
 20
 21 24 1.0
 22
 23
 24
 25 26 1.5 27 1.5
 26 28 1.5 29 1.0
 27 30 1.5 31 1.0
 28 32 1.5 33 1.0
 29
 30 32 1.5 34 1.0
 31
 32 35 1.0
 33
 34
 35

