%nprocshared=12
# opt freq=noraman hf/6-311g geom=connectivity

M0001

0 1
 C                  0.27299630    0.69993550    0.19662507
 H                  0.70794370    1.69284982    0.49010005
 C                 -1.22384939    0.79393309    0.35697070
 C                 -2.06144374   -0.28691048    0.07183634
 C                 -1.78665421    1.98915526    0.81020635
 C                 -3.43656230   -0.17431501    0.23522447
 H                 -1.61480306   -1.23387471   -0.27026834
 C                 -3.16328306    2.09949819    0.97327010
 H                 -1.14267604    2.84636219    1.03971576
 C                 -3.99032894    1.01969313    0.68551875
 H                 -4.08348229   -1.02839994    0.01031875
 H                 -3.59539962    3.04017113    1.32987175
 H                 -5.07379348    1.10811372    0.81437600
 C                  0.72900019    0.48672570   -1.22568781
 C                 -0.13982884    0.60361719   -2.31037363
 C                  2.08195486    0.22500040   -1.46621363
 C                  0.33282873    0.45566125   -3.61036263
 H                 -1.20345823    0.81269423   -2.13883358
 C                  2.55115865    0.07491144   -2.76450662
 H                  2.77229653    0.13466095   -0.61896164
 C                  1.67689687    0.18984932   -3.84090823
 H                 -0.35966648    0.55091982   -4.45327039
 H                  3.61176744   -0.13308062   -2.93990665
 H                  2.04713203    0.07252771   -4.86424463
 C                  0.83768383   -0.34804813    1.12540507
 C                  1.62617613    0.04716202    2.20799742
 C                  0.58949774   -1.70722381    0.92286994
 C                  2.16232116   -0.90447214    3.06875602
 H                  1.82514466    1.11093075    2.38311878
 C                  1.12899342   -2.65626161    1.78244106
 H                 -0.05243702   -2.01414317    0.08285921
 C                  1.91851370   -2.25666056    2.85567200
 H                  2.77899597   -0.58639973    3.91550021
 H                  0.93146235   -3.71988179    1.61333681
 H                  2.34490219   -3.00470107    3.53154729

 1 2 1.0 3 1.0 14 1.0 25 1.0
 2
 3 4 1.5 5 1.5
 4 6 1.5 7 1.0
 5 8 1.5 9 1.0
 6 10 1.5 11 1.0
 7
 8 10 1.5 12 1.0
 9
 10 13 1.0
 11
 12
 13
 14 15 1.5 16 1.5
 15 17 1.5 18 1.0
 16 19 1.5 20 1.0
 17 21 1.5 22 1.0
 18
 19 21 1.5 23 1.0
 20
 21 24 1.0
 22
 23
 24
 25 26 1.5 27 1.5
 26 28 1.5 29 1.0
 27 30 1.5 31 1.0
 28 32 1.5 33 1.0
 29
 30 32 1.5 34 1.0
 31
 32 35 1.0
 33
 34
 35

