%nprocshared=12
# opt freq=noraman hf/6-311g geom=connectivity

M0001

0 1
 C                  0.00000000    0.00000000   -0.79543347
 H                  0.00000000    0.00000000   -1.91811814
 C                 -0.03786295    1.44255591   -0.35516043
 C                  0.50120139    2.41914903   -1.19714663
 C                 -0.59198953    1.82790279    0.86627713
 C                  0.48569497    3.75688578   -0.82053261
 H                  0.94150417    2.13113140   -2.15881881
 C                 -0.60847287    3.16736815    1.23921183
 H                 -1.02490891    1.06644366    1.52831163
 C                 -0.06936318    4.13384498    0.39779720
 H                  0.91133562    4.51506840   -1.48582880
 H                 -1.04896277    3.45938678    2.19801899
 H                 -0.08250995    5.18801401    0.69238768
 C                 -1.23035859   -0.75406821   -0.35516043
 C                 -2.34564520   -0.77552138   -1.19714663
 C                 -1.28701548   -1.42662937    0.86627713
 C                 -3.49640601   -1.45781871   -0.82053261
 H                 -2.31636599   -0.25019918   -2.15881881
 C                 -2.43878484   -2.11063701    1.23921183
 H                 -0.41111283   -1.42081895    1.52831163
 C                 -3.54533321   -2.12699276    0.39779720
 H                 -4.36583174   -1.46829435   -1.48582880
 H                 -2.47143545   -2.63812184    2.19801899
 H                 -4.45169694   -2.66546273    0.69238768
 C                  1.26822154   -0.68848765   -0.35516043
 C                  1.87900501   -0.40127342    0.86627713
 C                  1.84444381   -1.64362761   -1.19714663
 C                  3.04725772   -1.05673114    1.23921183
 H                  1.43602174    0.35437535    1.52831163
 C                  3.01071104   -2.29906707   -0.82053261
 H                  1.37486187   -1.88093222   -2.15881881
 C                  3.61469633   -2.00685222    0.39779720
 H                  3.52039822   -0.82126499    2.19801899
 H                  3.45449612   -3.04677400   -1.48582880
 H                  4.53420689   -2.52255127    0.69238768

 1 2 1.0 3 1.0 14 1.0 25 1.0
 2
 3 4 1.5 5 1.5
 4 6 1.5 7 1.0
 5 8 1.5 9 1.0
 6 10 1.5 11 1.0
 7
 8 10 1.5 12 1.0
 9
 10 13 1.0
 11
 12
 13
 14 15 1.5 16 1.5
 15 17 1.5 18 1.0
 16 19 1.5 20 1.0
 17 21 1.5 22 1.0
 18
 19 21 1.5 23 1.0
 20
 21 24 1.0
 22
 23
 24
 25 26 1.5 27 1.5
 26 28 1.5 29 1.0
 27 30 1.5 31 1.0
 28 32 1.5 33 1.0
 29
 30 32 1.5 34 1.0
 31
 32 35 1.0
 33
 34
 35

