%nprocshared=12
# opt freq=noraman hf/6-311g geom=connectivity

M0001

0 1
 C                  0.75969501   -0.14311704   -0.06423386
 H                  1.86630634   -0.32769243   -0.11484474
 C                  0.32708149   -0.30261324    1.37354501
 C                 -0.97333027    0.00487854    1.77874862
 C                  1.24504765   -0.76323235    2.31952030
 C                 -1.34793241   -0.13838684    3.10900577
 H                 -1.70127205    0.34475395    1.02624577
 C                  0.86726838   -0.90737996    3.65005013
 H                  2.26793124   -1.01404225    2.01507886
 C                 -0.42759511   -0.59317600    4.04749135
 H                 -2.36965038    0.10641426    3.41684521
 H                  1.59295190   -1.26875781    4.38568292
 H                 -0.72256365   -0.70499253    5.09567083
 C                  0.58517886    1.27785807   -0.54044550
 C                  0.02215422    1.58609461   -1.77833481
 C                  1.06109156    2.31770893    0.26566878
 C                 -0.06817750    2.90844315   -2.20118077
 H                 -0.35326630    0.78200221   -2.42370800
 C                  0.96837299    3.63691506   -0.15747854
 H                  1.50506445    2.08378909    1.24086381
 C                  0.40314003    3.93589221   -1.39342191
 H                 -0.51210165    3.13702655   -3.17554462
 H                  1.34180517    4.44223202    0.48328303
 H                  0.33110287    4.97578742   -1.72730915
 C                  0.08743754   -1.17446149   -0.93557940
 C                  0.87325994   -2.10909313   -1.61369787
 C                 -1.30139444   -1.22478069   -1.07564722
 C                  0.27843502   -3.07505873   -2.41808856
 H                  1.96483089   -2.08393213   -1.51326590
 C                 -1.89353564   -2.19065421   -1.87996017
 H                 -1.92095331   -0.49701010   -0.52806582
 C                 -1.10451230   -3.11730396   -2.55361731
 H                  0.90265441   -3.80405775   -2.94512407
 H                 -2.98322521   -2.22180630   -1.98100927
 H                 -1.57130019   -3.87824735   -3.18714297

 1 2 1.0 3 1.0 14 1.0 25 1.0
 2
 3 4 1.5 5 1.5
 4 6 1.5 7 1.0
 5 8 1.5 9 1.0
 6 10 1.5 11 1.0
 7
 8 10 1.5 12 1.0
 9
 10 13 1.0
 11
 12
 13
 14 15 1.5 16 1.5
 15 17 1.5 18 1.0
 16 19 1.5 20 1.0
 17 21 1.5 22 1.0
 18
 19 21 1.5 23 1.0
 20
 21 24 1.0
 22
 23
 24
 25 26 1.5 27 1.5
 26 28 1.5 29 1.0
 27 30 1.5 31 1.0
 28 32 1.5 33 1.0
 29
 30 32 1.5 34 1.0
 31
 32 35 1.0
 33
 34
 35

