%nprocshared=12
# opt freq=noraman hf/6-311g geom=connectivity

M0001

0 1
 C                  0.00000000    0.00000000   -0.79582173
 H                  0.00000000    0.00000000   -1.91851656
 C                 -0.00797973    1.44295925   -0.35544767
 C                 -0.55357481    1.83945134    0.86633846
 C                  0.55083642    2.40826042   -1.19748705
 C                 -0.54210357    3.17888204    1.23952135
 H                 -1.00195166    1.08701077    1.52843408
 C                  0.56313979    3.74591933   -0.82063051
 H                  0.98471710    2.11124000   -2.15933687
 C                  0.01654478    4.13407465    0.39801495
 H                 -0.97599044    3.47981217    2.19859208
 H                  1.00408139    4.49524024   -1.48599496
 H                  0.02535341    5.18823759    0.69277562
 C                 -1.24564948   -0.72839026   -0.35544767
 C                 -2.36103288   -0.72709187   -1.19748705
 C                 -1.31622421   -1.39913549    0.86633846
 C                 -3.52563120   -1.38526628   -0.82063051
 H                 -2.32074604   -0.20282999   -2.15933687
 C                 -2.48194084   -2.05891649    1.23952135
 H                 -0.44040311   -1.41122095    1.52843408
 C                 -3.58848602   -2.05270914    0.39801495
 H                 -4.39503296   -1.37806016   -1.48599496
 H                 -2.52561055   -2.58513860    2.19859208
 H                 -4.50582230   -2.57216212    0.69277562
 C                  1.25362921   -0.71456900   -0.35544767
 C                  1.86979902   -0.44031585    0.86633846
 C                  1.81019646   -1.68116855   -1.19748705
 C                  3.02404440   -1.11996555    1.23952135
 H                  1.44235477    0.32421023    1.52843408
 C                  2.96249141   -2.36065304   -0.82063051
 H                  1.33602894   -1.90841001   -2.15933687
 C                  3.57194125   -2.08136551    0.39801495
 H                  3.50160094   -0.89467363    2.19859208
 H                  3.39095157   -3.11718013   -1.48599496
 H                  4.48046884   -2.61607552    0.69277562

 1 2 1.0 3 1.0 14 1.0 25 1.0
 2
 3 4 1.5 5 1.5
 4 6 1.5 7 1.0
 5 8 1.5 9 1.0
 6 10 1.5 11 1.0
 7
 8 10 1.5 12 1.0
 9
 10 13 1.0
 11
 12
 13
 14 15 1.5 16 1.5
 15 17 1.5 18 1.0
 16 19 1.5 20 1.0
 17 21 1.5 22 1.0
 18
 19 21 1.5 23 1.0
 20
 21 24 1.0
 22
 23
 24
 25 26 1.5 27 1.5
 26 28 1.5 29 1.0
 27 30 1.5 31 1.0
 28 32 1.5 33 1.0
 29
 30 32 1.5 34 1.0
 31
 32 35 1.0
 33
 34
 35

