%nprocshared=12
# opt freq=noraman hf/6-311g geom=connectivity

M0001

0 1
 C                  0.00000000    0.00000000    0.77430480
 H                  0.00000000    0.00000000    1.89897494
 C                  1.36537705   -0.47403677    0.34054985
 C                  2.30732716   -0.79949586    1.31988342
 C                  1.71809972   -0.59800495   -1.00417056
 C                  3.57537603   -1.23954108    0.95777674
 H                  2.04775529   -0.70815632    2.38133112
 C                  2.98550321   -1.03760107   -1.36551458
 H                  0.97183317   -0.34045941   -1.77690470
 C                  3.91735497   -1.35941899   -0.38471265
 H                  4.30583362   -1.49219396    1.73322493
 H                  3.24875375   -1.13015671   -2.42412902
 H                  4.91618613   -1.70574375   -0.66842775
 C                 -1.09321643   -0.94543278    0.34054985
 C                 -1.37693730   -1.18891554   -1.00417056
 C                 -1.84604727   -1.59845603    1.31988342
 C                 -2.39134045   -2.06672111   -1.36551458
 H                 -0.78076309   -0.67140247   -1.77690470
 C                 -2.86116206   -2.47659593    0.95777674
 H                 -1.63715905   -1.41932995    2.38133112
 C                 -3.13596888   -2.71281944   -0.38471265
 H                 -2.60312126   -2.24842492   -2.42412902
 H                 -3.44519467   -2.98286431    1.73322493
 H                 -3.93531054   -3.40467022   -0.66842775
 C                 -0.27216062    1.41946960    0.34054985
 C                 -0.46127989    2.39795183    1.31988342
 C                 -0.34116242    1.78692050   -1.00417056
 C                 -0.71421397    3.71613702    0.95777674
 H                 -0.41059630    2.12748627    2.38133112
 C                 -0.59416276    3.10432218   -1.36551458
 H                 -0.19107008    1.01186194   -1.77690470
 C                 -0.78138609    4.07223843   -0.38471265
 H                 -0.86063890    4.47505826    1.73322493
 H                 -0.64563249    3.37858162   -2.42412902
 H                 -0.98087565    5.11041397   -0.66842775

 1 2 1.0 3 1.0 14 1.0 25 1.0
 2
 3 4 1.5 5 1.5
 4 6 1.5 7 1.0
 5 8 1.5 9 1.0
 6 10 1.5 11 1.0
 7
 8 10 1.5 12 1.0
 9
 10 13 1.0
 11
 12
 13
 14 15 1.5 16 1.5
 15 17 1.5 18 1.0
 16 19 1.5 20 1.0
 17 21 1.5 22 1.0
 18
 19 21 1.5 23 1.0
 20
 21 24 1.0
 22
 23
 24
 25 26 1.5 27 1.5
 26 28 1.5 29 1.0
 27 30 1.5 31 1.0
 28 32 1.5 33 1.0
 29
 30 32 1.5 34 1.0
 31
 32 35 1.0
 33
 34
 35

