%nprocshared=12
# opt freq=noraman hf/6-311g geom=connectivity

M0001

0 1
 C                  0.10423686   -0.72779557   -0.22339355
 H                  0.27486340   -1.77018579   -0.60755872
 C                 -0.00064941   -0.84089144    1.27715823
 C                 -0.56882051    0.15646189    2.07146884
 C                  0.49695946   -1.99354580    1.89276965
 C                 -0.64280674    0.00385416    3.45134403
 H                 -0.96780888    1.06696003    1.59607013
 C                  0.42529711   -2.14310510    3.27260843
 H                  0.94884677   -2.78699374    1.28569042
 C                 -0.14562804   -1.14527932    4.05528322
 H                 -1.09518576    0.79208066    4.06180248
 H                  0.81912468   -3.04978898    3.74335102
 H                 -0.20373208   -1.26482978    5.14181562
 C                  1.28876616    0.09345979   -0.67310833
 C                  1.91867245   -0.25242644   -1.87306330
 C                  1.77002757    1.18104684    0.05496157
 C                  3.00732272    0.47786632   -2.33274714
 H                  1.55025835   -1.10288513   -2.45862497
 C                  2.86178654    1.90935550   -0.40596410
 H                  1.29138723    1.45976269    1.00240628
 C                  3.48205663    1.56073405   -1.59964292
 H                  3.49220678    0.19946257   -3.27403938
 H                  3.23237858    2.75929607    0.17625333
 H                  4.34096046    2.13472505   -1.96157238
 C                 -1.16109230   -0.22029485   -0.87054293
 C                 -1.58751185    1.10023009   -0.71990802
 C                 -1.91593349   -1.09142961   -1.65982022
 C                 -2.74101226    1.54611987   -1.35365408
 H                 -1.00744881    1.77683395   -0.07398385
 C                 -3.07202797   -0.64514412   -2.28999708
 H                 -1.59691157   -2.13288960   -1.78571477
 C                 -3.48482491    0.67441799   -2.14143438
 H                 -3.06315425    2.58508621   -1.23076960
 H                 -3.65744909   -1.33557749   -2.90597215
 H                 -4.39315369    1.02530912   -2.64147074

 1 2 1.0 3 1.0 14 1.0 25 1.0
 2
 3 4 1.5 5 1.5
 4 6 1.5 7 1.0
 5 8 1.5 9 1.0
 6 10 1.5 11 1.0
 7
 8 10 1.5 12 1.0
 9
 10 13 1.0
 11
 12
 13
 14 15 1.5 16 1.5
 15 17 1.5 18 1.0
 16 19 1.5 20 1.0
 17 21 1.5 22 1.0
 18
 19 21 1.5 23 1.0
 20
 21 24 1.0
 22
 23
 24
 25 26 1.5 27 1.5
 26 28 1.5 29 1.0
 27 30 1.5 31 1.0
 28 32 1.5 33 1.0
 29
 30 32 1.5 34 1.0
 31
 32 35 1.0
 33
 34
 35

