%nprocshared=12
# opt freq=noraman hf/6-311g geom=connectivity

M0001

0 1
 C                 -0.05247195   -0.00085515    0.77231499
 H                 -0.14799786    0.05213179    1.89013064
 C                 -1.45773446   -0.23352370    0.27402830
 C                 -2.41599339    0.75984852    0.50553319
 C                 -1.84671430   -1.41314953   -0.35884488
 C                 -3.73262406    0.57649257    0.10522552
 H                 -2.11772830    1.69066389    1.00263208
 C                 -3.16727898   -1.59557815   -0.75765773
 H                 -1.10907503   -2.20448701   -0.54393616
 C                 -4.11199002   -0.60317777   -0.52823166
 H                 -4.47288689    1.36183389    0.28940180
 H                 -3.46002248   -2.52689132   -1.25334118
 H                 -5.15019514   -0.74793928   -0.84324268
 C                  0.48510769    1.32513587    0.29000951
 C                  0.90125855    2.27690397    1.22329148
 C                  0.56886258    1.62335260   -1.07156271
 C                  1.38828418    3.50828577    0.79878755
 H                  0.84589079    2.05530480    2.29562536
 C                  1.05319682    2.85544059   -1.49324480
 H                  0.26325997    0.86194856   -1.80529226
 C                  1.46241710    3.80083586   -0.55854267
 H                  1.71346260    4.24881356    1.53692065
 H                  1.11311921    3.08021683   -2.56303778
 H                  1.84344652    4.77178742   -0.89066860
 C                  0.91226506   -1.11600566    0.45562727
 C                  1.29774127   -1.40707797   -0.85498401
 C                  1.44117159   -1.87357507    1.50338246
 C                  2.19483588   -2.43607837   -1.11325632
 H                  0.89087223   -0.80091077   -1.67997473
 C                  2.33851793   -2.90326531    1.24254406
 H                  1.14930393   -1.65741754    2.53800642
 C                  2.71650564   -3.18686716   -0.06496863
 H                  2.49166060   -2.65371479   -2.14434454
 H                  2.74806238   -3.49107502    2.07048806
 H                  3.42347046   -3.99740716   -0.26881786

 1 2 1.0 3 1.0 14 1.0 25 1.0
 2
 3 4 1.5 5 1.5
 4 6 1.5 7 1.0
 5 8 1.5 9 1.0
 6 10 1.5 11 1.0
 7
 8 10 1.5 12 1.0
 9
 10 13 1.0
 11
 12
 13
 14 15 1.5 16 1.5
 15 17 1.5 18 1.0
 16 19 1.5 20 1.0
 17 21 1.5 22 1.0
 18
 19 21 1.5 23 1.0
 20
 21 24 1.0
 22
 23
 24
 25 26 1.5 27 1.5
 26 28 1.5 29 1.0
 27 30 1.5 31 1.0
 28 32 1.5 33 1.0
 29
 30 32 1.5 34 1.0
 31
 32 35 1.0
 33
 34
 35

