%nprocshared=12
# opt freq=noraman hf/6-311g geom=connectivity

M0001

0 1
 C                  0.00000000    0.00000000   -0.77443841
 H                  0.00000000    0.00000000   -1.89911465
 C                 -0.41456730   -1.38519463   -0.34053789
 C                 -0.52455187   -1.74252406    1.00417045
 C                 -0.69784250   -2.34076947   -1.31986712
 C                 -0.91009306   -3.02744283    1.36548066
 H                 -0.29958973   -0.98585843    1.77693820
 C                 -1.08321085   -3.62650651   -0.95773303
 H                 -0.61660077   -2.07795872   -2.38134355
 C                 -1.19042470   -3.97266225    0.38471683
 H                 -0.99276208   -3.29395978    2.42407197
 H                 -1.30275205   -4.36766947   -1.73314191
 H                 -1.49427447   -4.98526488    0.66842971
 C                  1.40689741    0.33357154   -0.34053789
 C                  1.77134607    0.41698675    1.00417045
 C                  2.37608708    0.56603540   -1.31986712
 C                  3.07688894    0.72555768    1.36548066
 H                  1.00357327    0.23347692    1.77693820
 C                  3.68225216    0.87516514   -0.95773303
 H                  2.10786544    0.50498745   -2.38134355
 C                  4.03563879    0.95539312    0.38471683
 H                  3.34903390    0.78722270    2.42407197
 H                  4.43388875    1.05561839   -1.73314191
 H                  5.06450324    1.19855276    0.66842971
 C                 -0.99233011    1.05162315   -0.34053789
 C                 -1.24679415    1.32553731    1.00417045
 C                 -1.67824458    1.77473407   -1.31986712
 C                 -2.16679589    2.30188510    1.36548066
 H                 -0.70398360    0.75238151    1.77693820
 C                 -2.59904136    2.75134132   -0.95773303
 H                 -1.49126467    1.57297128   -2.38134355
 C                 -2.84521408    3.01726914    0.38471683
 H                 -2.35627182    2.50673708    2.42407197
 H                 -3.13113670    3.31205108   -1.73314191
 H                 -3.57022877    3.78671207    0.66842971

 1 2 1.0 3 1.0 14 1.0 25 1.0
 2
 3 4 1.5 5 1.5
 4 6 1.5 7 1.0
 5 8 1.5 9 1.0
 6 10 1.5 11 1.0
 7
 8 10 1.5 12 1.0
 9
 10 13 1.0
 11
 12
 13
 14 15 1.5 16 1.5
 15 17 1.5 18 1.0
 16 19 1.5 20 1.0
 17 21 1.5 22 1.0
 18
 19 21 1.5 23 1.0
 20
 21 24 1.0
 22
 23
 24
 25 26 1.5 27 1.5
 26 28 1.5 29 1.0
 27 30 1.5 31 1.0
 28 32 1.5 33 1.0
 29
 30 32 1.5 34 1.0
 31
 32 35 1.0
 33
 34
 35

