%nprocshared=12
# opt freq=noraman hf/6-311g geom=connectivity

M0001

0 1
 C                  0.00000000    0.00000000   -0.79510094
 H                  0.00000000    0.00000000   -1.91778905
 C                  1.15004843   -0.87162515   -0.35499194
 C                  1.57546153   -1.90268013   -1.19708091
 C                  1.79736905   -0.67990942    0.86636725
 C                  2.62953430   -2.72658657   -0.82060865
 H                  1.07536860   -2.06632958   -2.15872646
 C                  2.85339765   -1.50414638    1.23915447
 H                  1.47363899    0.13391910    1.52846810
 C                  3.27084421   -2.52893352    0.39767385
 H                  2.95534434   -3.53263528   -1.48600782
 H                  3.35677825   -1.34280087    2.19790537
 H                  4.10200920   -3.17751644    0.69214336
 C                  0.17982528    1.43178372   -0.35499194
 C                  0.86003855    2.31572976   -1.19708091
 C                 -0.30986572    1.89652194    0.86636725
 C                  1.04652606    3.64053680   -0.82060865
 H                  1.25180958    1.96446132   -2.15872646
 C                 -0.12406984    3.22318804    1.23915447
 H                 -0.85279681    1.20924929    1.52846810
 C                  0.55469857    4.09710093    0.39767385
 H                  1.58167974    4.32572090   -1.48600782
 H                 -0.51548950    3.57845568    2.19790537
 H                  0.70080536    5.14120241    0.69214336
 C                 -1.32987370   -0.56015862   -0.35499194
 C                 -2.43550008   -0.41304962   -1.19708091
 C                 -1.48750333   -1.21661257    0.86636725
 C                 -3.67606036   -0.91395023   -0.82060865
 H                 -2.32717819    0.10186826   -2.15872646
 C                 -2.72932781   -1.71904166    1.23915447
 H                 -0.62084218   -1.34316833    1.52846810
 C                 -3.82554277   -1.56816741    0.39767385
 H                 -4.53702407   -0.79308562   -1.48600782
 H                 -2.84128881   -2.23565481    2.19790537
 H                 -4.80281456   -1.96368596    0.69214336

 1 2 1.0 3 1.0 14 1.0 25 1.0
 2
 3 4 1.5 5 1.5
 4 6 1.5 7 1.0
 5 8 1.5 9 1.0
 6 10 1.5 11 1.0
 7
 8 10 1.5 12 1.0
 9
 10 13 1.0
 11
 12
 13
 14 15 1.5 16 1.5
 15 17 1.5 18 1.0
 16 19 1.5 20 1.0
 17 21 1.5 22 1.0
 18
 19 21 1.5 23 1.0
 20
 21 24 1.0
 22
 23
 24
 25 26 1.5 27 1.5
 26 28 1.5 29 1.0
 27 30 1.5 31 1.0
 28 32 1.5 33 1.0
 29
 30 32 1.5 34 1.0
 31
 32 35 1.0
 33
 34
 35

