%nprocshared=12
# opt freq=noraman hf/6-311g geom=connectivity

M0001

0 1
 C                  0.28091581   -0.07979511   -0.73995749
 H                  0.67666228   -0.19278324   -1.78449835
 C                 -1.22176718    0.00584064   -0.84553830
 C                 -1.99162980    0.68323630    0.10121235
 C                 -1.85853294   -0.61536054   -1.92333869
 C                 -3.37488574    0.74047127   -0.02842216
 H                 -1.49661185    1.18032297    0.94591010
 C                 -3.24150270   -0.55873407   -2.04878841
 H                 -1.26687896   -1.15298531   -2.67335044
 C                 -4.00236079    0.11960231   -1.10232452
 H                 -3.96916370    1.27759602    0.71788604
 H                 -3.73218194   -1.04935002   -2.89563695
 H                 -5.09136158    0.16516119   -1.20367996
 C                  0.72062575   -1.29936224    0.03191897
 C                  1.88633359   -1.96249225   -0.36117649
 C                 -0.00035730   -1.78091825    1.12560880
 C                  2.32112832   -3.08699342    0.33022232
 H                  2.46397299   -1.59445069   -1.21706015
 C                  0.43591553   -2.90751142    1.81399135
 H                 -0.92187127   -1.26961269    1.43392927
 C                  1.59694518   -3.56201748    1.41862953
 H                  3.23601487   -3.59973723    0.01591405
 H                 -0.13887490   -3.27893369    2.66857657
 H                  1.93960935   -4.44890230    1.96107664
 C                  0.87789992    1.18665664   -0.17768518
 C                  1.23827005    2.21086757   -1.05766482
 C                  1.07705499    1.36501509    1.19209505
 C                  1.78713354    3.39203140   -0.57276965
 H                  1.08578519    2.08572487   -2.13603381
 C                  1.62864379    2.54689057    1.67413192
 H                  0.80407303    0.56079585    1.88813178
 C                  1.98381550    3.56242013    0.79365612
 H                  2.06550692    4.18959428   -1.26936509
 H                  1.78381608    2.67515303    2.75037832
 H                  2.41785800    4.49255974    1.17402148

 1 2 1.0 3 1.0 14 1.0 25 1.0
 2
 3 4 1.5 5 1.5
 4 6 1.5 7 1.0
 5 8 1.5 9 1.0
 6 10 1.5 11 1.0
 7
 8 10 1.5 12 1.0
 9
 10 13 1.0
 11
 12
 13
 14 15 1.5 16 1.5
 15 17 1.5 18 1.0
 16 19 1.5 20 1.0
 17 21 1.5 22 1.0
 18
 19 21 1.5 23 1.0
 20
 21 24 1.0
 22
 23
 24
 25 26 1.5 27 1.5
 26 28 1.5 29 1.0
 27 30 1.5 31 1.0
 28 32 1.5 33 1.0
 29
 30 32 1.5 34 1.0
 31
 32 35 1.0
 33
 34
 35

