%nprocshared=12
# opt freq=noraman hf/6-311g geom=connectivity

M0001

0 1
 C                  0.11251219   -0.75824168    0.05210406
 H                  0.23346903   -1.87530183    0.08087675
 C                 -1.36975695   -0.49004792   -0.05200839
 C                 -1.96551819    0.65535284    0.47525774
 C                 -2.16937293   -1.42892463   -0.71171334
 C                 -3.33555962    0.85909778    0.34726098
 H                 -1.35252789    1.39713547    1.00301182
 C                 -3.53715678   -1.22239817   -0.84014117
 H                 -1.71564032   -2.33296120   -1.13456698
 C                 -4.12385565   -0.07754770   -0.31033118
 H                 -3.79210666    1.76102293    0.76800378
 H                 -4.15381910   -1.96325225   -1.35931908
 H                 -5.20185824    0.08374891   -0.41055566
 C                  0.71845411   -0.23353492    1.32998827
 C                  0.90529845   -1.12478122    2.39115111
 C                  1.09433559    1.10053241    1.49531891
 C                  1.45801069   -0.68873128    3.58940124
 H                  0.61358420   -2.17609459    2.28132482
 C                  1.65039557    1.53438341    2.69341456
 H                  0.95466042    1.81063028    0.66432891
 C                  1.83308994    0.64162302    3.74315813
 H                  1.59855176   -1.39582459    4.41344388
 H                  1.94510449    2.58262554    2.80757868
 H                  2.27076339    0.98377792    4.68625745
 C                  0.82138178   -0.26944282   -1.18726266
 C                  0.74761347    1.06112855   -1.60237475
 C                  1.55487236   -1.17950979   -1.95261912
 C                  1.38518950    1.47393014   -2.76599387
 H                  0.19404559    1.78269210   -0.98218314
 C                  2.19554947   -0.76446289   -3.11456308
 H                  1.62648819   -2.22760534   -1.63857740
 C                  2.10899888    0.56117379   -3.52559521
 H                  1.31647113    2.51953068   -3.08314609
 H                  2.76806491   -1.48515310   -3.70780745
 H                  2.61026732    0.88543017   -4.44312242

 1 2 1.0 3 1.0 14 1.0 25 1.0
 2
 3 4 1.5 5 1.5
 4 6 1.5 7 1.0
 5 8 1.5 9 1.0
 6 10 1.5 11 1.0
 7
 8 10 1.5 12 1.0
 9
 10 13 1.0
 11
 12
 13
 14 15 1.5 16 1.5
 15 17 1.5 18 1.0
 16 19 1.5 20 1.0
 17 21 1.5 22 1.0
 18
 19 21 1.5 23 1.0
 20
 21 24 1.0
 22
 23
 24
 25 26 1.5 27 1.5
 26 28 1.5 29 1.0
 27 30 1.5 31 1.0
 28 32 1.5 33 1.0
 29
 30 32 1.5 34 1.0
 31
 32 35 1.0
 33
 34
 35

