%nprocshared=12
# opt freq=noraman hf/6-311g geom=connectivity

M0001

0 1
 C                 -0.10391385    0.04374015   -0.78732875
 H                 -0.25091664    0.10510630   -1.89866643
 C                 -1.47465353    0.09023652   -0.15861072
 C                 -1.74014377   -0.49783726    1.07882815
 C                 -2.50616609    0.74485704   -0.83726954
 C                 -3.01595656   -0.43382300    1.62807837
 H                 -0.93617133   -1.02128267    1.61289093
 C                 -3.77973386    0.80930839   -0.28463809
 H                 -2.31187258    1.21300671   -1.80923161
 C                 -4.03742471    0.22001528    0.94856091
 H                 -3.21446249   -0.90151631    2.59786272
 H                 -4.58155899    1.32515238   -0.82279151
 H                 -5.04141275    0.27004651    1.38183605
 C                  0.59797108   -1.26224887   -0.50770435
 C                  1.41895583   -1.43597104    0.60739229
 C                  0.41579213   -2.32868052   -1.39256676
 C                  2.04870041   -2.65492369    0.83332140
 H                  1.57306452   -0.59946897    1.30177249
 C                  1.04440613   -3.54666536   -1.16268825
 H                 -0.22780880   -2.20740236   -2.27160928
 C                  1.86231031   -3.71226318   -0.04994237
 H                  2.69365217   -2.77951139    1.70922357
 H                  0.89498759   -4.37701616   -1.86045237
 H                  2.35826608   -4.67157162    0.12890927
 C                  0.73760768    1.23079743   -0.38840901
 C                  0.66521470    1.79262974    0.88697357
 C                  1.61682298    1.77981412   -1.32590747
 C                  1.45747025    2.88596248    1.21925052
 H                 -0.02989005    1.37153847    1.62528494
 C                  2.40920791    2.87109498   -0.99012297
 H                  1.68576218    1.34777164   -2.33100223
 C                  2.33104679    3.42658901    0.28255795
 H                  1.39043386    3.32132285    2.22154584
 H                  3.09594229    3.29401688   -1.73051967
 H                  2.95447130    4.28717552    0.54517242

 1 2 1.0 3 1.0 14 1.0 25 1.0
 2
 3 4 1.5 5 1.5
 4 6 1.5 7 1.0
 5 8 1.5 9 1.0
 6 10 1.5 11 1.0
 7
 8 10 1.5 12 1.0
 9
 10 13 1.0
 11
 12
 13
 14 15 1.5 16 1.5
 15 17 1.5 18 1.0
 16 19 1.5 20 1.0
 17 21 1.5 22 1.0
 18
 19 21 1.5 23 1.0
 20
 21 24 1.0
 22
 23
 24
 25 26 1.5 27 1.5
 26 28 1.5 29 1.0
 27 30 1.5 31 1.0
 28 32 1.5 33 1.0
 29
 30 32 1.5 34 1.0
 31
 32 35 1.0
 33
 34
 35

