%nprocshared=12
# opt freq=noraman hf/6-311g geom=connectivity

M0001

0 1
 C                  0.19887005   -0.21764034    0.71665009
 H                  0.44374597   -0.51336892    1.77201781
 C                 -1.28373627   -0.41624596    0.51094746
 C                 -1.91679044    0.00123177   -0.66163979
 C                 -2.03992802   -1.02575713    1.51429372
 C                 -3.28439723   -0.18083659   -0.82553688
 H                 -1.31401611    0.45978724   -1.46048237
 C                 -3.40817443   -1.20939407    1.34674964
 H                 -1.55587425   -1.36265735    2.43850406
 C                 -4.03285346   -0.78536047    0.17909353
 H                 -3.77182112    0.15163627   -1.74778069
 H                 -3.99384469   -1.68896121    2.13786354
 H                 -5.11042313   -0.92848530    0.05001349
 C                  0.57838010    1.23993442    0.62793368
 C                  1.67598902    1.68326674   -0.10898083
 C                 -0.16661077    2.17025692    1.36055191
 C                  2.01992570    3.03140113   -0.11816406
 H                  2.27316200    0.96595676   -0.68618980
 C                  0.17727306    3.51545321    1.34859462
 H                 -1.03117035    1.82970363    1.94290549
 C                  1.27261651    3.94987561    0.60838111
 H                  2.88435415    3.36653321   -0.70052040
 H                 -0.41496413    4.23447439    1.92374621
 H                  1.54390743    5.01023898    0.59959703
 C                  0.98611175   -1.11973827   -0.20063951
 C                  0.88535540   -1.02321104   -1.59056224
 C                  1.83162920   -2.08307692    0.35431168
 C                  1.61721478   -1.87316019   -2.41033770
 H                  0.20672738   -0.27329825   -2.02687243
 C                  2.56322585   -2.93268904   -0.46811644
 H                  1.92087140   -2.17253138    1.44345943
 C                  2.45836927   -2.82919039   -1.85062719
 H                  1.52908634   -1.79001634   -3.49839487
 H                  3.22300764   -3.68513395   -0.02404719
 H                  3.03478136   -3.49899712   -2.49672213

 1 2 1.0 3 1.0 14 1.0 25 1.0
 2
 3 4 1.5 5 1.5
 4 6 1.5 7 1.0
 5 8 1.5 9 1.0
 6 10 1.5 11 1.0
 7
 8 10 1.5 12 1.0
 9
 10 13 1.0
 11
 12
 13
 14 15 1.5 16 1.5
 15 17 1.5 18 1.0
 16 19 1.5 20 1.0
 17 21 1.5 22 1.0
 18
 19 21 1.5 23 1.0
 20
 21 24 1.0
 22
 23
 24
 25 26 1.5 27 1.5
 26 28 1.5 29 1.0
 27 30 1.5 31 1.0
 28 32 1.5 33 1.0
 29
 30 32 1.5 34 1.0
 31
 32 35 1.0
 33
 34
 35

