%nprocshared=12
# opt freq=noraman hf/6-311g geom=connectivity

M0001

0 1
 C                 -0.19977584   -0.73273951    0.11622188
 H                 -0.45051404   -1.80618382    0.33566845
 C                 -0.16894518   -0.01959967    1.44681124
 C                  0.21644440   -0.74440178    2.57921774
 C                 -0.50099777    1.32756194    1.58615282
 C                  0.26879077   -0.13027767    3.82416485
 H                  0.48330594   -1.80361752    2.48579949
 C                 -0.45057395    1.93985367    2.83411263
 H                 -0.81309624    1.90755814    0.70832444
 C                 -0.06522030    1.21388594    3.95476786
 H                  0.57342472   -0.70647189    4.70392673
 H                 -0.71669703    2.99738477    2.93118549
 H                 -0.02535918    1.69676885    4.93629778
 C                  1.17009287   -0.71984653   -0.51682414
 C                  1.84595043    0.47112550   -0.78728620
 C                  1.78806987   -1.93510870   -0.82147613
 C                  3.11974241    0.44955094   -1.34239653
 H                  1.34548322    1.42789903   -0.57384325
 C                  3.06095309   -1.95525956   -1.38038748
 H                  1.26950522   -2.87976084   -0.61904832
 C                  3.73060721   -0.76419106   -1.63840579
 H                  3.64087415    1.39038544   -1.54676891
 H                  3.53679763   -2.91267942   -1.61624125
 H                  4.73444793   -0.78186499   -2.07452696
 C                 -1.28300045   -0.22367169   -0.80194537
 C                 -1.13511547    0.92630525   -1.57921260
 C                 -2.48448486   -0.93565544   -0.87026289
 C                 -2.16399358    1.35390507   -2.41063187
 H                 -0.19059626    1.49236885   -1.53640190
 C                 -3.51316246   -0.50517853   -1.69958498
 H                 -2.62009288   -1.84027876   -0.26559200
 C                 -3.35522946    0.64014154   -2.47252550
 H                 -2.03285933    2.25535687   -3.01796035
 H                 -4.44963055   -1.07067824   -1.74422309
 H                 -4.16514497    0.97741387   -3.12710585

 1 2 1.0 3 1.0 14 1.0 25 1.0
 2
 3 4 1.5 5 1.5
 4 6 1.5 7 1.0
 5 8 1.5 9 1.0
 6 10 1.5 11 1.0
 7
 8 10 1.5 12 1.0
 9
 10 13 1.0
 11
 12
 13
 14 15 1.5 16 1.5
 15 17 1.5 18 1.0
 16 19 1.5 20 1.0
 17 21 1.5 22 1.0
 18
 19 21 1.5 23 1.0
 20
 21 24 1.0
 22
 23
 24
 25 26 1.5 27 1.5
 26 28 1.5 29 1.0
 27 30 1.5 31 1.0
 28 32 1.5 33 1.0
 29
 30 32 1.5 34 1.0
 31
 32 35 1.0
 33
 34
 35

