%nprocshared=12
# opt freq=noraman hf/6-311g geom=connectivity

M0001

0 1
 C                  0.00000000    0.00000000    0.79554274
 H                  0.00000000    0.00000000    1.91823816
 C                 -1.33508642    0.54713075    0.35531506
 C                 -1.49899261    1.20088278   -0.86676783
 C                 -2.43917966    0.39061483    1.19785599
 C                 -2.74554535    1.69112989   -1.23990034
 H                 -0.63360805    1.33512907   -1.52909788
 C                 -3.68443591    0.87947788    0.82109576
 H                 -2.32589043   -0.12215977    2.16008735
 C                 -3.84023157    1.53083014   -0.39799172
 H                 -2.86252628    2.20555484   -2.19925631
 H                 -4.54410409    0.75141296    1.48689541
 H                 -4.82123560    1.91670566   -0.69282912
 C                  1.14137230    0.88265336    0.35531506
 C                  1.78949129    0.69772428   -0.86676783
 C                  1.55787221    1.91708413    1.19785599
 C                  2.83733411    1.53214710   -1.23990034
 H                  1.47305975   -0.11884390   -1.52909788
 C                  2.60386814    2.75107615    0.82109576
 H                  1.05715178    2.07536009    2.16008735
 C                  3.24585355    2.56032305   -0.39799172
 H                  3.34132966    1.37624307   -2.19925631
 H                  2.92279475    3.55960311    1.48689541
 H                  4.07053358    3.21695967   -0.69282912
 C                  0.19371412   -1.42978411    0.35531506
 C                  0.88130745   -2.30769896    1.19785599
 C                 -0.29049868   -1.89860706   -0.86676783
 C                  1.08056777   -3.63055403    0.82109576
 H                  1.26873870   -1.95320032    2.16008735
 C                 -0.09178876   -3.22327694   -1.23990034
 H                 -0.83945170   -1.21628523   -1.52909788
 C                  0.59437803   -4.09115313   -0.39799172
 H                  1.62130934   -4.31101607    1.48689541
 H                 -0.47880339   -3.58179791   -2.19925631
 H                  0.75070201   -5.13366533   -0.69282912

 1 2 1.0 3 1.0 14 1.0 25 1.0
 2
 3 4 1.5 5 1.5
 4 6 1.5 7 1.0
 5 8 1.5 9 1.0
 6 10 1.5 11 1.0
 7
 8 10 1.5 12 1.0
 9
 10 13 1.0
 11
 12
 13
 14 15 1.5 16 1.5
 15 17 1.5 18 1.0
 16 19 1.5 20 1.0
 17 21 1.5 22 1.0
 18
 19 21 1.5 23 1.0
 20
 21 24 1.0
 22
 23
 24
 25 26 1.5 27 1.5
 26 28 1.5 29 1.0
 27 30 1.5 31 1.0
 28 32 1.5 33 1.0
 29
 30 32 1.5 34 1.0
 31
 32 35 1.0
 33
 34
 35

