%nprocshared=12
# opt freq=noraman hf/6-311g geom=connectivity

M0001

0 1
 C                  0.28855575   -0.10334281   -0.71131016
 H                  0.66554665   -0.28580138   -1.75339907
 C                 -1.21589236    0.00797454   -0.77518884
 C                 -1.98845982    0.08718597    0.38524781
 C                 -1.85024518    0.02658211   -2.01910633
 C                 -3.37266315    0.17621586    0.30393819
 H                 -1.48424762    0.09621226    1.36364013
 C                 -3.23559698    0.11847479   -2.09801115
 H                 -1.25652492   -0.03058364   -2.93901409
 C                 -3.99887912    0.19061515   -0.93808172
 H                 -3.96953645    0.23612704    1.21977197
 H                 -3.72517605    0.13345946   -3.07723936
 H                 -5.08943686    0.26028636   -1.00205718
 C                  0.71616542   -1.31986574    0.07229620
 C                  0.15145979   -2.55683804   -0.25825384
 C                  1.68763166   -1.26580600    1.07095701
 C                  0.54752255   -3.71192175    0.40239717
 H                 -0.61350736   -2.60752275   -1.04238176
 C                  2.08437309   -2.42484377    1.73061053
 H                  2.14346748   -0.30432820    1.33981949
 C                  1.51622284   -3.64873571    1.39960286
 H                  0.09662697   -4.67362382    0.13690911
 H                  2.84847800   -2.36887619    2.51276758
 H                  1.82904168   -4.55960867    1.91974626
 C                  0.89779339    1.18994442   -0.23091496
 C                  1.78274158    1.87556388   -1.06623813
 C                  0.59501997    1.72504237    1.02329169
 C                  2.35398800    3.07397117   -0.65215360
 H                  2.03015809    1.46942071   -2.05420967
 C                  1.16661781    2.92281909    1.43487422
 H                 -0.11379343    1.19125408    1.67601616
 C                  2.04807693    3.59933199    0.59815212
 H                  3.04616777    3.60431811   -1.31421038
 H                  0.92016600    3.33391510    2.41916263
 H                  2.49813784    4.54298393    0.92256899

 1 2 1.0 3 1.0 14 1.0 25 1.0
 2
 3 4 1.5 5 1.5
 4 6 1.5 7 1.0
 5 8 1.5 9 1.0
 6 10 1.5 11 1.0
 7
 8 10 1.5 12 1.0
 9
 10 13 1.0
 11
 12
 13
 14 15 1.5 16 1.5
 15 17 1.5 18 1.0
 16 19 1.5 20 1.0
 17 21 1.5 22 1.0
 18
 19 21 1.5 23 1.0
 20
 21 24 1.0
 22
 23
 24
 25 26 1.5 27 1.5
 26 28 1.5 29 1.0
 27 30 1.5 31 1.0
 28 32 1.5 33 1.0
 29
 30 32 1.5 34 1.0
 31
 32 35 1.0
 33
 34
 35

