%nprocshared=12
# opt freq=noraman hf/6-311g geom=connectivity

M0001

0 1
 C                 -0.30748680   -0.17828172    0.71154326
 H                 -0.74137420   -0.42944073    1.71608282
 C                 -0.47222344    1.30925188    0.52040428
 C                 -0.51512294    2.13346804    1.64830754
 C                 -0.57974548    1.88394948   -0.74675673
 C                 -0.66198910    3.50832197    1.50777865
 H                 -0.43001806    1.69624894    2.64985296
 C                 -0.72926292    3.25954331   -0.88409172
 H                 -0.55555742    1.24102400   -1.63652377
 C                 -0.76982425    4.07410659    0.24180749
 H                 -0.69333099    4.14647264    2.39680458
 H                 -0.81637016    3.69986857   -1.88263697
 H                 -0.88728906    5.15693675    0.13266823
 C                  1.14574156   -0.58222288    0.74608504
 C                  1.53797620   -1.61767522    1.59881132
 C                  2.10589298    0.04504119   -0.04878591
 C                  2.86809677   -2.01710487    1.65245904
 H                  0.79438501   -2.12091468    2.22767466
 C                  3.43633328   -0.35518202    0.00877741
 H                  1.80574518    0.86520046   -0.71424694
 C                  3.81987190   -1.38674793    0.85817828
 H                  3.16613331   -2.82988747    2.32268029
 H                  4.18227481    0.14591571   -0.61662262
 H                  4.86742573   -1.70115007    0.90265939
 C                 -1.08553479   -0.96608493   -0.31338120
 C                 -0.52456267   -1.34925106   -1.53246657
 C                 -2.40829307   -1.31840844   -0.03120521
 C                 -1.27294222   -2.07369414   -2.45357429
 H                  0.51692849   -1.08331309   -1.75652768
 C                 -3.15464048   -2.04032850   -0.95489680
 H                 -2.86264894   -1.02283004    0.92155816
 C                 -2.58872272   -2.41975404   -2.16746143
 H                 -0.82217359   -2.37233537   -3.40555432
 H                 -4.19048886   -2.31094610   -0.72600986
 H                 -3.17720301   -2.98979621   -2.89339149

 1 2 1.0 3 1.0 14 1.0 25 1.0
 2
 3 4 1.5 5 1.5
 4 6 1.5 7 1.0
 5 8 1.5 9 1.0
 6 10 1.5 11 1.0
 7
 8 10 1.5 12 1.0
 9
 10 13 1.0
 11
 12
 13
 14 15 1.5 16 1.5
 15 17 1.5 18 1.0
 16 19 1.5 20 1.0
 17 21 1.5 22 1.0
 18
 19 21 1.5 23 1.0
 20
 21 24 1.0
 22
 23
 24
 25 26 1.5 27 1.5
 26 28 1.5 29 1.0
 27 30 1.5 31 1.0
 28 32 1.5 33 1.0
 29
 30 32 1.5 34 1.0
 31
 32 35 1.0
 33
 34
 35

