%nprocshared=12
# opt freq=noraman hf/6-311g geom=connectivity

M0001

0 1
 C                  0.04160217   -0.11011713   -0.76650954
 H                  0.09107765   -0.31717964   -1.86917284
 C                 -1.42784299    0.06819915   -0.47439021
 C                 -1.98229533    1.30933342   -0.16346238
 C                 -2.27040535   -1.04369708   -0.57814276
 C                 -3.35191860    1.43638528    0.04540907
 H                 -1.33576937    2.19231726   -0.08209746
 C                 -3.63680642   -0.91501546   -0.36765637
 H                 -1.84231387   -2.02324243   -0.82272965
 C                 -4.18156550    0.32667794   -0.05492341
 H                 -3.77472377    2.41655861    0.28866936
 H                 -4.28571748   -1.79295793   -0.44896504
 H                 -5.25877654    0.42796924    0.11050427
 C                  0.60831650   -1.30813934   -0.04294289
 C                  1.19688247   -2.33888523   -0.77866458
 C                  0.55298477   -1.40909085    1.34873829
 C                  1.71685716   -3.45390477   -0.13051876
 H                  1.25164633   -2.27132713   -1.87154858
 C                  1.07088536   -2.52531998    1.99383070
 H                  0.10972506   -0.58422555    1.92739541
 C                  1.65253731   -3.55053534    1.25506434
 H                  2.17756629   -4.25731685   -0.71453857
 H                  1.02132527   -2.59585407    3.08522126
 H                  2.06015011   -4.43018266    1.76334591
 C                  0.87951317    1.11484073   -0.49745106
 C                  1.03875123    1.62725581    0.79225311
 C                  1.52040196    1.74836750   -1.56458085
 C                  1.82290381    2.75304961    1.01077199
 H                  0.54552539    1.11753810    1.63497646
 C                  2.30485627    2.87498591   -1.34350176
 H                  1.40665552    1.35752158   -2.58268867
 C                  2.45689144    3.37974539   -0.05700657
 H                  1.94228551    3.14504507    2.02597341
 H                  2.80390863    3.36452879   -2.18609911
 H                  3.07488585    4.26667202    0.11543764

 1 2 1.0 3 1.0 14 1.0 25 1.0
 2
 3 4 1.5 5 1.5
 4 6 1.5 7 1.0
 5 8 1.5 9 1.0
 6 10 1.5 11 1.0
 7
 8 10 1.5 12 1.0
 9
 10 13 1.0
 11
 12
 13
 14 15 1.5 16 1.5
 15 17 1.5 18 1.0
 16 19 1.5 20 1.0
 17 21 1.5 22 1.0
 18
 19 21 1.5 23 1.0
 20
 21 24 1.0
 22
 23
 24
 25 26 1.5 27 1.5
 26 28 1.5 29 1.0
 27 30 1.5 31 1.0
 28 32 1.5 33 1.0
 29
 30 32 1.5 34 1.0
 31
 32 35 1.0
 33
 34
 35

