%nprocshared=12
# opt freq=noraman hf/6-311g geom=connectivity

M0001

0 1
 C                 -0.10817029    0.00419087    0.77037672
 H                 -0.22626307   -0.00853483    1.88705681
 C                  1.35458364    0.21166444    0.45915562
 C                  2.24616295    0.48208233    1.49922598
 C                  1.83570492    0.13745977   -0.84970017
 C                  3.59787617    0.67033412    1.23219637
 H                  1.88216833    0.54795748    2.53125217
 C                  3.18708619    0.32334487   -1.11357388
 H                  1.12643188   -0.05281411   -1.66983654
 C                  4.07087919    0.58887273   -0.07267186
 H                  4.29028449    0.88307401    2.05317148
 H                  3.55485009    0.26178547   -2.14290195
 H                  5.13559810    0.73516441   -0.28063603
 C                 -0.58815141   -1.35282788    0.31868134
 C                 -1.82021045   -1.53237470   -0.30988350
 C                  0.20040503   -2.47408102    0.59696692
 C                 -2.25318143   -2.80725948   -0.65968114
 H                 -2.45235533   -0.66325616   -0.53169926
 C                 -0.23298986   -3.74570453    0.24555258
 H                  1.16996068   -2.34205818    1.09228010
 C                 -1.46184527   -3.91565467   -0.38444335
 H                 -3.22236533   -2.93458366   -1.15288794
 H                  0.39446042   -4.61530039    0.46608921
 H                 -1.80330679   -4.91804238   -0.66123042
 C                 -0.92556419    1.15495178    0.23873922
 C                 -1.62511286    1.96569679    1.13524221
 C                 -0.99299545    1.43613430   -1.12790188
 C                 -2.37973438    3.03738480    0.67056595
 H                 -1.58082310    1.75928453    2.21114136
 C                 -1.74786224    2.50714835   -1.58989548
 H                 -0.42724030    0.80560066   -1.83188829
 C                 -2.44354691    3.30943160   -0.69133436
 H                 -2.92423840    3.66800559    1.38085819
 H                 -1.79250691    2.71947818   -2.66294978
 H                 -3.03798806    4.15344476   -1.05543656

 1 2 1.0 3 1.0 14 1.0 25 1.0
 2
 3 4 1.5 5 1.5
 4 6 1.5 7 1.0
 5 8 1.5 9 1.0
 6 10 1.5 11 1.0
 7
 8 10 1.5 12 1.0
 9
 10 13 1.0
 11
 12
 13
 14 15 1.5 16 1.5
 15 17 1.5 18 1.0
 16 19 1.5 20 1.0
 17 21 1.5 22 1.0
 18
 19 21 1.5 23 1.0
 20
 21 24 1.0
 22
 23
 24
 25 26 1.5 27 1.5
 26 28 1.5 29 1.0
 27 30 1.5 31 1.0
 28 32 1.5 33 1.0
 29
 30 32 1.5 34 1.0
 31
 32 35 1.0
 33
 34
 35

