%nprocshared=12
# opt freq=noraman hf/6-311g geom=connectivity

M0001

0 1
 C                  0.21540641    0.73908271   -0.07539252
 H                  0.50328386    1.81209060   -0.24114935
 C                  0.22980729    0.49659073    1.41297295
 C                 -0.17512026   -0.71992358    1.96710678
 C                  0.65317247    1.52186768    2.26194069
 C                 -0.15841074   -0.90735499    3.34371181
 H                 -0.51990188   -1.52503967    1.29874570
 C                  0.67014303    1.33179472    3.63916660
 H                  0.97432099    2.48291685    1.84286649
 C                  0.26486591    0.11794937    4.18260089
 H                 -0.48102387   -1.86411904    3.76688131
 H                  1.00334118    2.14160350    4.29624234
 H                  0.27764496   -0.02995270    5.26715225
 C                 -1.17042223    0.54013254   -0.64090159
 C                 -1.74144639   -0.73052358   -0.73577863
 C                 -1.89459256    1.64794627   -1.08630987
 C                 -3.01192339   -0.89229926   -1.27442312
 H                 -1.17875740   -1.59872231   -0.36045655
 C                 -3.16732221    1.48394234   -1.62194282
 H                 -1.46091799    2.65225066   -1.01403760
 C                 -3.72665754    0.21472177   -1.71982939
 H                 -3.44983084   -1.89309748   -1.34657343
 H                 -3.72909413    2.35775802   -1.96767670
 H                 -4.72745512    0.08718555   -2.14460971
 C                  1.23508615   -0.06230761   -0.84700391
 C                  1.32486107    0.14109374   -2.22887055
 C                  2.11279197   -0.95708183   -0.23726540
 C                  2.26966731   -0.54219400   -2.98218103
 H                  0.63725710    0.84262735   -2.71607954
 C                  3.06046609   -1.63945520   -0.99400554
 H                  2.05959368   -1.12499913    0.84607499
 C                  3.14105470   -1.43526846   -2.36568964
 H                  2.32880054   -0.37696407   -4.06283178
 H                  3.74467909   -2.33896789   -0.50286439
 H                  3.88663269   -1.97328333   -2.95958971

 1 2 1.0 3 1.0 14 1.0 25 1.0
 2
 3 4 1.5 5 1.5
 4 6 1.5 7 1.0
 5 8 1.5 9 1.0
 6 10 1.5 11 1.0
 7
 8 10 1.5 12 1.0
 9
 10 13 1.0
 11
 12
 13
 14 15 1.5 16 1.5
 15 17 1.5 18 1.0
 16 19 1.5 20 1.0
 17 21 1.5 22 1.0
 18
 19 21 1.5 23 1.0
 20
 21 24 1.0
 22
 23
 24
 25 26 1.5 27 1.5
 26 28 1.5 29 1.0
 27 30 1.5 31 1.0
 28 32 1.5 33 1.0
 29
 30 32 1.5 34 1.0
 31
 32 35 1.0
 33
 34
 35

