%nprocshared=12
# opt freq=noraman hf/6-311g geom=connectivity

M0001

0 1
 C                  0.12849985   -0.75657434    0.16280090
 H                  0.28249662   -1.84550179    0.38784575
 C                 -1.34158265   -0.55596367   -0.11145378
 C                 -2.07913937   -1.61128540   -0.65422194
 C                 -1.97830867    0.65762947    0.15239543
 C                 -3.43210166   -1.45222811   -0.92919334
 H                 -1.58933291   -2.56825330   -0.86819598
 C                 -3.33279430    0.81245271   -0.12196848
 H                 -1.40634654    1.48585939    0.58899629
 C                 -4.06136495   -0.24062436   -0.66351281
 H                 -4.00261797   -2.28350958   -1.35605597
 H                 -3.82523612    1.76684870    0.09074326
 H                 -5.12740739   -0.11742512   -0.87949841
 C                  0.58191468   -0.01983901    1.39880375
 C                  0.06661881   -0.42175644    2.63622373
 C                  1.51103373    1.01879628    1.35770864
 C                  0.47266413    0.20728804    3.80567042
 H                 -0.66719599   -1.23481802    2.67907714
 C                  1.92227165    1.64217967    2.53173858
 H                  1.92446393    1.34432368    0.39436045
 C                  1.40435964    1.23989960    3.75643641
 H                  0.05910248   -0.11113744    4.76809800
 H                  2.65828661    2.45155654    2.48681832
 H                  1.72778605    1.73204180    4.67911626
 C                  0.94052853   -0.42690808   -1.06522862
 C                  0.72297466    0.74509019   -1.79275086
 C                  1.92818595   -1.31888952   -1.48958585
 C                  1.48288991    1.02178465   -2.92319047
 H                 -0.06002881    1.44305186   -1.46951559
 C                  2.68659199   -1.03942784   -2.62094358
 H                  2.10908673   -2.24412562   -0.92996001
 C                  2.46653448    0.13084426   -3.33886550
 H                  1.30413590    1.94324348   -3.48668084
 H                  3.45856724   -1.74418303   -2.94668726
 H                  3.06446397    0.34955999   -4.22932407

 1 2 1.0 3 1.0 14 1.0 25 1.0
 2
 3 4 1.5 5 1.5
 4 6 1.5 7 1.0
 5 8 1.5 9 1.0
 6 10 1.5 11 1.0
 7
 8 10 1.5 12 1.0
 9
 10 13 1.0
 11
 12
 13
 14 15 1.5 16 1.5
 15 17 1.5 18 1.0
 16 19 1.5 20 1.0
 17 21 1.5 22 1.0
 18
 19 21 1.5 23 1.0
 20
 21 24 1.0
 22
 23
 24
 25 26 1.5 27 1.5
 26 28 1.5 29 1.0
 27 30 1.5 31 1.0
 28 32 1.5 33 1.0
 29
 30 32 1.5 34 1.0
 31
 32 35 1.0
 33
 34
 35

