%nprocshared=12
# opt freq=noraman hf/6-311g geom=connectivity

M0001

0 1
 C                 -0.14283113   -0.76157200    0.04049153
 H                 -0.35904285   -1.85840361    0.14784260
 C                 -1.49236361   -0.12260931   -0.17587825
 C                 -1.87411504    0.42293835   -1.40092776
 C                 -2.41240059   -0.13216059    0.87815552
 C                 -3.14928611    0.95379537   -1.56859858
 H                 -1.16575028    0.43491411   -2.23909388
 C                 -3.68397474    0.39937959    0.70908534
 H                 -2.11977431   -0.55937692    1.84484746
 C                 -4.05604503    0.94424827   -0.51609440
 H                 -3.43655267    1.37917927   -2.53569223
 H                 -4.39440440    0.38834921    1.54195001
 H                 -5.05875686    1.36239106   -0.64945299
 C                  0.49449746   -0.28568671    1.32393554
 C                  0.74805242    1.06862234    1.55011484
 C                  0.83666320   -1.21695326    2.30670056
 C                  1.32813620    1.48596506    2.74149439
 H                  0.49893170    1.79761019    0.76390901
 C                  1.41950485   -0.79689453    3.49727460
 H                  0.64679383   -2.28378184    2.14153159
 C                  1.66392795    0.55397375    3.71776456
 H                  1.52257191    2.54993435    2.90963639
 H                  1.68630887   -1.53343258    4.26219243
 H                  2.12137629    0.88299156    4.65627438
 C                  0.81271529   -0.59925333   -1.11507785
 C                  1.29768359    0.65387803   -1.49703625
 C                  1.23169360   -1.73258701   -1.81570821
 C                  2.18422037    0.77182608   -2.56035575
 H                  0.97855229    1.54529763   -0.93399239
 C                  2.11916269   -1.61220384   -2.87960209
 H                  0.86122454   -2.72352549   -1.52753427
 C                  2.59618671   -0.36116384   -3.25434520
 H                  2.55943969    1.75879218   -2.84970458
 H                  2.44264270   -2.50641804   -3.42230939
 H                  3.29501162   -0.26806363   -4.09179683

 1 2 1.0 3 1.0 14 1.0 25 1.0
 2
 3 4 1.5 5 1.5
 4 6 1.5 7 1.0
 5 8 1.5 9 1.0
 6 10 1.5 11 1.0
 7
 8 10 1.5 12 1.0
 9
 10 13 1.0
 11
 12
 13
 14 15 1.5 16 1.5
 15 17 1.5 18 1.0
 16 19 1.5 20 1.0
 17 21 1.5 22 1.0
 18
 19 21 1.5 23 1.0
 20
 21 24 1.0
 22
 23
 24
 25 26 1.5 27 1.5
 26 28 1.5 29 1.0
 27 30 1.5 31 1.0
 28 32 1.5 33 1.0
 29
 30 32 1.5 34 1.0
 31
 32 35 1.0
 33
 34
 35

