%nprocshared=12
# opt freq=noraman hf/6-311g geom=connectivity

M0001

0 1
 C                  0.31468885    0.22528144   -0.67287729
 H                  0.75842731    0.56395361   -1.64731698
 C                 -1.17297127    0.47590069   -0.72789045
 C                 -1.74504569    0.94838501   -1.91105474
 C                 -1.99159387    0.24263846    0.37946671
 C                 -3.11344525    1.18583600   -1.98188728
 H                 -1.11547442    1.13341549   -2.78952321
 C                 -3.35842675    0.48086861    0.30636008
 H                 -1.54079920   -0.14757430    1.30493564
 C                 -3.92176762    0.95402990   -0.87434946
 H                 -3.55378226    1.55667706   -2.91333804
 H                 -3.99181873    0.29369994    1.17963187
 H                 -4.99871122    1.14174982   -0.93167999
 C                  0.58887617   -1.25177376   -0.53122405
 C                  1.22860267   -1.93107912   -1.57012155
 C                  0.21149987   -1.95814114    0.61310222
 C                  1.48627014   -3.29363111   -1.46361616
 H                  1.53017449   -1.39078036   -2.47502306
 C                  0.47178295   -3.31885148    0.71814205
 H                 -0.30967680   -1.42449509    1.42298964
 C                  1.11031775   -3.98919370   -0.32013864
 H                  1.98592072   -3.81878142   -2.28440087
 H                  0.17035539   -3.86309631    1.61916295
 H                  1.31439569   -5.06152461   -0.23773373
 C                  1.00387708    1.06769802    0.37152921
 C                  0.55438286    2.36686468    0.62355337
 C                  2.13619373    0.60208523    1.04215633
 C                  1.21947796    3.17866391    1.53404664
 H                 -0.33232326    2.74434840    0.09949284
 C                  2.80124411    1.41673789    1.95165549
 H                  2.50200501   -0.41467276    0.85171205
 C                  2.34488467    2.70578361    2.20058518
 H                  0.85553340    4.19335044    1.72542904
 H                  3.68803358    1.03945461    2.47115816
 H                  2.86889260    3.34617232    2.91706609

 1 2 1.0 3 1.0 14 1.0 25 1.0
 2
 3 4 1.5 5 1.5
 4 6 1.5 7 1.0
 5 8 1.5 9 1.0
 6 10 1.5 11 1.0
 7
 8 10 1.5 12 1.0
 9
 10 13 1.0
 11
 12
 13
 14 15 1.5 16 1.5
 15 17 1.5 18 1.0
 16 19 1.5 20 1.0
 17 21 1.5 22 1.0
 18
 19 21 1.5 23 1.0
 20
 21 24 1.0
 22
 23
 24
 25 26 1.5 27 1.5
 26 28 1.5 29 1.0
 27 30 1.5 31 1.0
 28 32 1.5 33 1.0
 29
 30 32 1.5 34 1.0
 31
 32 35 1.0
 33
 34
 35

