%nprocshared=12
# opt freq=noraman hf/6-311g geom=connectivity

M0001

0 1
 C                  0.14205647    0.75391523    0.04158460
 H                  0.28744458    1.86738549    0.09010349
 C                  1.52053531    0.15077403   -0.06591151
 C                  2.57600384    0.97397893   -0.47014128
 C                  1.78174927   -1.19086085    0.21739591
 C                  3.86351584    0.46397690   -0.58639152
 H                  2.39019261    2.03010618   -0.69897388
 C                  3.07079838   -1.69882661    0.10329524
 H                  0.95810779   -1.84725655    0.54156465
 C                  4.11434422   -0.87346970   -0.29925005
 H                  4.68188560    1.11819852   -0.90414431
 H                  3.26203430   -2.75216536    0.33240687
 H                  5.12908774   -1.27395205   -0.38914039
 C                 -0.58716624    0.34892535    1.29926466
 C                 -0.82147238    1.30917192    2.28654034
 C                 -1.05247682   -0.95243200    1.49505792
 C                 -1.51408994    0.97218894    3.44396957
 H                 -0.45928929    2.33508759    2.15039965
 C                 -1.74783848   -1.28707903    2.65070456
 H                 -0.84140521   -1.71445300    0.72940718
 C                 -1.98165338   -0.32458293    3.62687630
 H                 -1.69244754    1.73155173    4.21226085
 H                 -2.11054392   -2.31042089    2.79113037
 H                 -2.53043400   -0.58728758    4.53686198
 C                 -0.71650975    0.48652297   -1.17141999
 C                 -0.62670351   -0.69178469   -1.91169356
 C                 -1.64232128    1.46148427   -1.55703357
 C                 -1.44580062   -0.89260814   -3.01789102
 H                  0.10051595   -1.46279467   -1.62680839
 C                 -2.46088350    1.25788168   -2.66085926
 H                 -1.72737959    2.39197954   -0.98363806
 C                 -2.36431066    0.07994011   -3.39453928
 H                 -1.36391504   -1.82083123   -3.59268722
 H                 -3.18312741    2.02700075   -2.95321355
 H                 -3.00850321   -0.07926482   -4.26508719

 1 2 1.0 3 1.0 14 1.0 25 1.0
 2
 3 4 1.5 5 1.5
 4 6 1.5 7 1.0
 5 8 1.5 9 1.0
 6 10 1.5 11 1.0
 7
 8 10 1.5 12 1.0
 9
 10 13 1.0
 11
 12
 13
 14 15 1.5 16 1.5
 15 17 1.5 18 1.0
 16 19 1.5 20 1.0
 17 21 1.5 22 1.0
 18
 19 21 1.5 23 1.0
 20
 21 24 1.0
 22
 23
 24
 25 26 1.5 27 1.5
 26 28 1.5 29 1.0
 27 30 1.5 31 1.0
 28 32 1.5 33 1.0
 29
 30 32 1.5 34 1.0
 31
 32 35 1.0
 33
 34
 35

