%nprocshared=12
# opt freq=noraman hf/6-311g geom=connectivity

M0001

0 1
 C                  0.00000000    0.00000000   -0.79602827
 H                  0.00000000    0.00000000   -1.91872177
 C                 -1.21020604    0.78564803   -0.35557261
 C                 -1.84079566    0.54756886    0.86645731
 C                 -1.71040136    1.78255267   -1.19775312
 C                 -2.95378390    1.29269858    1.23978493
 H                 -1.45799339   -0.24026954    1.52856193
 C                 -2.82150250    2.52736943   -0.82079027
 H                 -1.22420008    1.98185532   -2.15979191
 C                 -3.44560700    2.28393197    0.39814693
 H                 -3.44320962    1.09557138    2.19906956
 H                 -3.20590029    3.30714513   -1.48625452
 H                 -4.32169979    2.87020019    0.69305847
 C                 -0.07528816   -1.44089319   -0.35557261
 C                 -0.68853522   -2.37252735   -1.19775312
 C                  0.44618929   -1.86796023    0.86645731
 C                 -0.77801491   -3.70717757   -0.82079027
 H                 -1.10423702   -2.05111605   -2.15979191
 C                  0.35738213   -3.20440119    1.23978493
 H                  0.93707623   -1.14252453    1.52856193
 C                 -0.25513964   -4.12594918    0.39814693
 H                 -1.26112157   -4.42996368   -1.48625452
 H                  0.77281215   -3.52969269    2.19906956
 H                 -0.32481640   -5.17780189    0.69305847
 C                  1.28549415    0.65524516   -0.35557261
 C                  2.39893658    0.58997469   -1.19775312
 C                  1.39460637    1.32039138    0.86645731
 C                  3.59951741    1.17980814   -0.82079027
 H                  2.32843710    0.06926073   -2.15979191
 C                  2.59640177    1.91170261    1.23978493
 H                  0.52091716    1.38279413    1.52856193
 C                  3.70074664    1.84201721    0.39814693
 H                  4.46702186    1.12281855   -1.48625452
 H                  2.67039747    2.43412131    2.19906956
 H                  4.64651619    2.30760170    0.69305847

 1 2 1.0 3 1.0 14 1.0 25 1.0
 2
 3 4 1.5 5 1.5
 4 6 1.5 7 1.0
 5 8 1.5 9 1.0
 6 10 1.5 11 1.0
 7
 8 10 1.5 12 1.0
 9
 10 13 1.0
 11
 12
 13
 14 15 1.5 16 1.5
 15 17 1.5 18 1.0
 16 19 1.5 20 1.0
 17 21 1.5 22 1.0
 18
 19 21 1.5 23 1.0
 20
 21 24 1.0
 22
 23
 24
 25 26 1.5 27 1.5
 26 28 1.5 29 1.0
 27 30 1.5 31 1.0
 28 32 1.5 33 1.0
 29
 30 32 1.5 34 1.0
 31
 32 35 1.0
 33
 34
 35

