%nprocshared=12
# opt freq=noraman hf/6-311g geom=connectivity

M0001

0 1
 C                 -0.13148287   -0.76343497    0.03735187
 H                 -0.35917694   -1.86300227    0.05714649
 C                 -1.43974831   -0.02034978   -0.08890305
 C                 -1.47380325    1.36162280   -0.28584430
 C                 -2.64116789   -0.72786378   -0.01173017
 C                 -2.68853073    2.02443371   -0.41084179
 H                 -0.52583026    1.91986067   -0.32253586
 C                 -3.85577890   -0.06185812   -0.13446352
 H                 -2.63020556   -1.81257691    0.14707587
 C                 -3.88187597    1.31347392   -0.33672644
 H                 -2.70455443    3.10796969   -0.56661030
 H                 -4.79336901   -0.62372593   -0.07174760
 H                 -4.83883471    1.83572683   -0.43561279
 C                  0.54984363   -0.41899709    1.33802785
 C                  0.94133372    0.88747570    1.63940488
 C                  0.78812707   -1.43178261    2.26984855
 C                  1.56055064    1.17585122    2.84937575
 H                  0.73949658    1.68807892    0.91030086
 C                  1.40800202   -1.14091933    3.48026827
 H                  0.48584986   -2.46232096    2.04887657
 C                  1.79590820    0.16183886    3.77201089
 H                  1.86150284    2.20381242    3.07574306
 H                  1.58979133   -1.94139543    4.20474548
 H                  2.28357525    0.38934327    4.72528290
 C                  0.73196215   -0.57077651   -1.18485993
 C                  0.15907269   -0.77210379   -2.44533733
 C                  2.08790016   -0.25648719   -1.10136094
 C                  0.92722998   -0.65436630   -3.59594536
 H                 -0.90676638   -1.01925740   -2.51945760
 C                  2.85620758   -0.14041554   -2.25551526
 H                  2.55363832   -0.09904981   -0.12016906
 C                  2.27928024   -0.33796514   -3.50379438
 H                  0.46717942   -0.81169191   -4.57685482
 H                  3.91982697    0.10691090   -2.17620365
 H                  2.88484644   -0.24605821   -4.41094526

 1 2 1.0 3 1.0 14 1.0 25 1.0
 2
 3 4 1.5 5 1.5
 4 6 1.5 7 1.0
 5 8 1.5 9 1.0
 6 10 1.5 11 1.0
 7
 8 10 1.5 12 1.0
 9
 10 13 1.0
 11
 12
 13
 14 15 1.5 16 1.5
 15 17 1.5 18 1.0
 16 19 1.5 20 1.0
 17 21 1.5 22 1.0
 18
 19 21 1.5 23 1.0
 20
 21 24 1.0
 22
 23
 24
 25 26 1.5 27 1.5
 26 28 1.5 29 1.0
 27 30 1.5 31 1.0
 28 32 1.5 33 1.0
 29
 30 32 1.5 34 1.0
 31
 32 35 1.0
 33
 34
 35

