%nprocshared=12
# opt freq=noraman hf/6-311g geom=connectivity

M0001

0 1
 C                  0.06835081    0.75530564   -0.14308307
 H                  0.16322822    1.86440279   -0.29335311
 C                 -1.40176736    0.52182359    0.10523976
 C                 -2.20604242   -0.21490571   -0.76298972
 C                 -1.98439939    1.11383386    1.23156104
 C                 -3.56634996   -0.36109367   -0.50921192
 H                 -1.76655844   -0.68209789   -1.65352227
 C                 -3.34136898    0.96526328    1.48383402
 H                 -1.35848150    1.69397374    1.92005011
 C                 -4.13683224    0.22664095    0.61278382
 H                 -4.18712271   -0.94155476   -1.19928006
 H                 -3.78549464    1.43087697    2.36957031
 H                 -5.20700353    0.11057048    0.81118417
 C                  0.60330323    0.08725260   -1.38473425
 C                  0.69639885   -1.30206835   -1.49385658
 C                  1.02464321    0.88183071   -2.45373267
 C                  1.20070741   -1.88599232   -2.64948132
 H                  0.37666540   -1.92884218   -0.64636387
 C                  1.52838894    0.29556529   -3.60963449
 H                  0.95953139    1.97435555   -2.38407517
 C                  1.61682139   -1.08835848   -3.71027209
 H                  1.27136856   -2.97594362   -2.72248492
 H                  1.85654260    0.92722533   -4.44204924
 H                  2.01418000   -1.54847545   -4.62064207
 C                  0.89098917    0.38100381    1.06641059
 C                  1.70183117    1.34534462    1.66881253
 C                  0.85279708   -0.90796142    1.60176079
 C                  2.45802875    1.02397306    2.79070338
 H                  1.74476809    2.36081851    1.25779759
 C                  1.60688857   -1.22601933    2.72472699
 H                  0.23174386   -1.67258789    1.11114739
 C                  2.40997929   -0.26005575    3.32207851
 H                  3.09238579    1.78550315    3.25600295
 H                  1.56832177   -2.23910277    3.13800992
 H                  3.00355768   -0.51050444    4.20709312

 1 2 1.0 3 1.0 14 1.0 25 1.0
 2
 3 4 1.5 5 1.5
 4 6 1.5 7 1.0
 5 8 1.5 9 1.0
 6 10 1.5 11 1.0
 7
 8 10 1.5 12 1.0
 9
 10 13 1.0
 11
 12
 13
 14 15 1.5 16 1.5
 15 17 1.5 18 1.0
 16 19 1.5 20 1.0
 17 21 1.5 22 1.0
 18
 19 21 1.5 23 1.0
 20
 21 24 1.0
 22
 23
 24
 25 26 1.5 27 1.5
 26 28 1.5 29 1.0
 27 30 1.5 31 1.0
 28 32 1.5 33 1.0
 29
 30 32 1.5 34 1.0
 31
 32 35 1.0
 33
 34
 35

