%nprocshared=12
# opt freq=noraman hf/6-311g geom=connectivity

M0001

0 1
 C                 -0.17477825   -0.12510925    0.73757169
 H                 -0.45773991   -0.24999746    1.81813338
 C                  0.19343868   -1.49865971    0.23440383
 C                  0.93849686   -1.70203994   -0.92833925
 C                 -0.23528289   -2.61083005    0.96550464
 C                  1.25273892   -2.98908177   -1.34977421
 H                  1.28509388   -0.83240587   -1.50952991
 C                  0.07684723   -3.89689328    0.54109078
 H                 -0.82331122   -2.47120081    1.88039913
 C                  0.82239368   -4.08925370   -0.61708883
 H                  1.84168833   -3.13387985   -2.26124588
 H                 -0.26518448   -4.76001074    1.12144481
 H                  1.06966746   -5.10245626   -0.94952639
 C                 -1.38341057    0.45484298    0.04283632
 C                 -1.67698493    0.19780132   -1.29595461
 C                 -2.23393112    1.28839383    0.77647855
 C                 -2.80057968    0.76166445   -1.89126303
 H                 -1.02364460   -0.46074627   -1.88245286
 C                 -3.35416480    1.85243280    0.17924006
 H                 -2.01509622    1.50277422    1.82915270
 C                 -3.64059675    1.58985224   -1.15661287
 H                 -3.02220255    0.54974616   -2.94232769
 H                 -4.01257343    2.50469207    0.76221119
 H                 -4.52437234    2.03329918   -1.62615317
 C                  0.97454997    0.85180529    0.69221200
 C                  1.47934627    1.34045450   -0.51391758
 C                  1.53532402    1.29571076    1.89222312
 C                  2.51838543    2.26312869   -0.52208596
 H                  1.05575994    0.96725753   -1.45883436
 C                  2.57762968    2.21566705    1.88258886
 H                  1.15283449    0.91921824    2.84834131
 C                  3.06865881    2.70378374    0.67661317
 H                  2.90314280    2.64184026   -1.47440349
 H                  3.01117217    2.55707877    2.82825104
 H                  3.88668492    3.43112083    0.67081350

 1 2 1.0 3 1.0 14 1.0 25 1.0
 2
 3 4 1.5 5 1.5
 4 6 1.5 7 1.0
 5 8 1.5 9 1.0
 6 10 1.5 11 1.0
 7
 8 10 1.5 12 1.0
 9
 10 13 1.0
 11
 12
 13
 14 15 1.5 16 1.5
 15 17 1.5 18 1.0
 16 19 1.5 20 1.0
 17 21 1.5 22 1.0
 18
 19 21 1.5 23 1.0
 20
 21 24 1.0
 22
 23
 24
 25 26 1.5 27 1.5
 26 28 1.5 29 1.0
 27 30 1.5 31 1.0
 28 32 1.5 33 1.0
 29
 30 32 1.5 34 1.0
 31
 32 35 1.0
 33
 34
 35

