%nprocshared=12
# opt freq=noraman hf/6-311g geom=connectivity

M0001

0 1
 C                 -0.44129451   -0.05404953   -0.62755527
 H                 -1.08117220   -0.19670651   -1.54051340
 C                  0.97304753   -0.40452039   -1.02004810
 C                  2.00298547   -0.47247342   -0.08053051
 C                  1.25533417   -0.68898587   -2.35817109
 C                  3.28951839   -0.82774249   -0.46779258
 H                  1.78472436   -0.21928306    0.96817740
 C                  2.54380912   -1.04051329   -2.74499236
 H                  0.45863708   -0.63645915   -3.10964888
 C                  3.56203955   -1.11426483   -1.80099021
 H                  4.08813867   -0.88074192    0.27917296
 H                  2.75537619   -1.26103023   -3.79630070
 H                  4.57491671   -1.39523868   -2.10647190
 C                 -0.60225906    1.38886305   -0.21807871
 C                 -1.69973844    2.10090575   -0.71125703
 C                  0.29563958    2.03661871    0.63216202
 C                 -1.89149296    3.43199016   -0.36124068
 H                 -2.41696676    1.60831889   -1.37848239
 C                  0.10383511    3.36900595    0.97910301
 H                  1.16648573    1.48571407    1.02255508
 C                 -0.98979202    4.06963134    0.48408822
 H                 -2.75468197    3.97934481   -0.75346548
 H                  0.81799145    3.86589185    1.64365200
 H                 -1.14035543    5.11879879    0.75753268
 C                 -0.95303865   -1.02461659    0.40981968
 C                 -1.51059276   -2.23027022   -0.02785155
 C                 -0.88356291   -0.76862350    1.77885695
 C                 -1.98678640   -3.15931904    0.88846537
 H                 -1.56972096   -2.44763041   -1.10069207
 C                 -1.36316864   -1.69932430    2.69450949
 H                 -0.45660376    0.17657581    2.13755906
 C                 -1.91444216   -2.89582137    2.25253170
 H                 -2.42001519   -4.10068891    0.53525310
 H                 -1.30569025   -1.48557009    3.76668011
 H                 -2.29110407   -3.62778532    2.97396402

 1 2 1.0 3 1.0 14 1.0 25 1.0
 2
 3 4 1.5 5 1.5
 4 6 1.5 7 1.0
 5 8 1.5 9 1.0
 6 10 1.5 11 1.0
 7
 8 10 1.5 12 1.0
 9
 10 13 1.0
 11
 12
 13
 14 15 1.5 16 1.5
 15 17 1.5 18 1.0
 16 19 1.5 20 1.0
 17 21 1.5 22 1.0
 18
 19 21 1.5 23 1.0
 20
 21 24 1.0
 22
 23
 24
 25 26 1.5 27 1.5
 26 28 1.5 29 1.0
 27 30 1.5 31 1.0
 28 32 1.5 33 1.0
 29
 30 32 1.5 34 1.0
 31
 32 35 1.0
 33
 34
 35

