%nprocshared=12
# opt freq=noraman hf/6-311g geom=connectivity

M0001

0 1
 C                 -0.03077160   -0.76236338    0.09483116
 H                 -0.06554834   -1.86765903    0.29583252
 C                  1.40672040   -0.32993122    0.25041144
 C                  2.38833303   -1.30093580    0.46227120
 C                  1.78037156    1.01429134    0.20896924
 C                  3.71718902   -0.93045585    0.63508752
 H                  2.11241134   -2.36167324    0.49367268
 C                  3.10834657    1.38366748    0.38572465
 H                  1.00995007    1.77520446    0.01271370
 C                  4.07941027    0.41166180    0.60072291
 H                  4.47941445   -1.69888043    0.80024523
 H                  3.38836045    2.44153075    0.35455870
 H                  5.12549563    0.70201061    0.74086826
 C                 -0.55920975   -0.56888348   -1.30475255
 C                 -1.30329202   -1.60197876   -1.88276291
 C                 -0.33780707    0.59651643   -2.04054727
 C                 -1.81207806   -1.47015224   -3.16931007
 H                 -1.48965226   -2.52415870   -1.31955618
 C                 -0.84521111    0.72576797   -3.32838429
 H                  0.25135459    1.41493625   -1.59611251
 C                 -1.58357657   -0.30640368   -3.89569845
 H                 -2.39334889   -2.28596142   -3.61135045
 H                 -0.66064499    1.64387119   -3.89559176
 H                 -1.98279545   -0.20422183   -4.90978616
 C                 -0.89185544   -0.10844027    1.14882640
 C                 -0.97914386   -0.71696532    2.40513208
 C                 -1.59215697    1.07553900    0.92034687
 C                 -1.75122088   -0.14888444    3.41055853
 H                 -0.43230992   -1.64661571    2.60144642
 C                 -2.36656379    1.64134653    1.92780843
 H                 -1.54058558    1.56052624   -0.06270062
 C                 -2.44739239    1.03208545    3.17411642
 H                 -1.81145458   -0.63261891    4.39081536
 H                 -2.91407142    2.56969515    1.73525861
 H                 -3.05666670    1.47853319    3.96633477

 1 2 1.0 3 1.0 14 1.0 25 1.0
 2
 3 4 1.5 5 1.5
 4 6 1.5 7 1.0
 5 8 1.5 9 1.0
 6 10 1.5 11 1.0
 7
 8 10 1.5 12 1.0
 9
 10 13 1.0
 11
 12
 13
 14 15 1.5 16 1.5
 15 17 1.5 18 1.0
 16 19 1.5 20 1.0
 17 21 1.5 22 1.0
 18
 19 21 1.5 23 1.0
 20
 21 24 1.0
 22
 23
 24
 25 26 1.5 27 1.5
 26 28 1.5 29 1.0
 27 30 1.5 31 1.0
 28 32 1.5 33 1.0
 29
 30 32 1.5 34 1.0
 31
 32 35 1.0
 33
 34
 35

